@<TRIPOS>MOLECULE
generated_molecule
18 18 0 0 0
SMALL
NO_CHARGES

@<TRIPOS>ATOM
     1  C1        -0.7945      2.5098      1.7356  C       1  LIG       0.0000
     2  N2        -0.9586      1.4648      0.7789  N       1  LIG       0.0000
     3  C3        -0.4737      0.2446      0.1396  C       1  LIG       0.0000
     4  C4        -0.5510     -1.0557     -0.7149  C       1  LIG       0.0000
     5  C5         0.3591     -2.1849     -0.1437  C       1  LIG       0.0000
     6  C6         0.8872     -0.7804      0.1462  C       1  LIG       0.0000
     7  O7         0.6758      0.4460      0.5970  O       1  LIG       0.0000
     8  C8         0.8792     -0.3083     -1.2880  C       1  LIG       0.0000
     9  C9         0.8767      0.0796     -2.4144  C       1  LIG       0.0000
    10  H10        0.2112      2.9634      1.7367  H       1  LIG       0.0000
    11  H11       -1.4979      3.2945      1.5089  H       1  LIG       0.0000
    12  H12       -1.0032      2.1650      2.7483  H       1  LIG       0.0000
    13  H13       -0.9600     -0.2850     -1.2965  H       1  LIG       0.0000
    14  H14       -0.7805     -2.0959     -1.0364  H       1  LIG       0.0000
    15  H15        1.1577     -2.7004      0.3738  H       1  LIG       0.0000
    16  H16       -0.2261     -3.0094     -0.5115  H       1  LIG       0.0000
    17  H17        1.3438     -1.1677      1.0668  H       1  LIG       0.0000
    18  H18        0.8548      0.4197     -3.4264  H       1  LIG       0.0000
@<TRIPOS>BOND
    1     9    18  1
    2     8     9  3
    3     6     8  1
    4     4    13  1
    5     1    10  1
    6     1    11  1
    7     6     7  1
    8     6    17  1
    9     5     6  1
   10     3     7  1
   11     1     2  1
   12     1    12  1
   13     2     3  1
   14     3     4  1
   15     4     5  1
   16     4    14  1
   17     5    15  1
   18     5    16  1
