@<TRIPOS>MOLECULE
generated_molecule
17 18 0 0 0
SMALL
NO_CHARGES

@<TRIPOS>ATOM
     1  C1        -1.0414      0.2484      1.3356  C       1  LIG       0.0000
     2  C2        -0.7022     -0.2490      0.3147  C       1  LIG       0.0000
     3  C3        -0.3350     -0.9213     -1.0222  C       1  LIG       0.0000
     4  O4        -0.7753     -1.8987     -0.5966  O       1  LIG       0.0000
     5  C5        -0.5568     -0.7238     -0.4895  C       1  LIG       0.0000
     6  C6        -0.0519      0.1177      0.6935  C       1  LIG       0.0000
     7  C7         1.0261      1.2296      0.7146  C       1  LIG       0.0000
     8  C8         0.5897      0.2592     -0.3094  C       1  LIG       0.0000
     9  C9         0.9565     -0.2342     -1.4377  C       1  LIG       0.0000
    10  H10       -1.3477      0.7179      2.2495  H       1  LIG       0.0000
    11  H11       -0.4623     -1.1482     -2.1217  H       1  LIG       0.0000
    12  H12       -1.3572     -0.9446     -1.2424  H       1  LIG       0.0000
    13  H13       -0.7279      0.9922      0.8378  H       1  LIG       0.0000
    14  H14        0.2770     -0.7636      1.2890  H       1  LIG       0.0000
    15  H15        1.3214      2.1480      0.2866  H       1  LIG       0.0000
    16  H16        1.4441      1.3055      1.6760  H       1  LIG       0.0000
    17  H17        1.7430     -0.1352     -2.1775  H       1  LIG       0.0000
@<TRIPOS>BOND
    1     3    11  1
    2     9    17  1
    3     3     9  1
    4     2     3  1
    5     3     4  1
    6     8     9  2
    7     1     2  3
    8     1    10  1
    9     5     8  1
   10     7     8  1
   11     4     5  1
   12     5    12  1
   13     5     6  1
   14     7    15  1
   15     7    16  1
   16     6     7  1
   17     6    14  1
   18     6    13  1
