@<TRIPOS>MOLECULE
generated_molecule
20 22 0 0 0
SMALL
NO_CHARGES

@<TRIPOS>ATOM
     1  C1         1.6274      0.5418     -0.7748  C       1  LIG       0.0000
     2  C2         0.2557     -0.2265     -0.9504  C       1  LIG       0.0000
     3  C3        -0.2678     -1.4158     -0.1189  C       1  LIG       0.0000
     4  O4        -1.4669     -1.4705      0.4595  O       1  LIG       0.0000
     5  C5        -1.0132     -0.4085     -0.1190  C       1  LIG       0.0000
     6  C6        -2.3690      0.0424     -0.6110  C       1  LIG       0.0000
     7  C7         0.1818     -0.3508      0.8268  C       1  LIG       0.0000
     8  C8         0.5938      0.9228      1.5813  C       1  LIG       0.0000
     9  N9         1.3492     -0.3328      1.6987  N       1  LIG       0.0000
    10  H10        2.4692     -0.1532     -0.7590  H       1  LIG       0.0000
    11  H11        1.6983      1.1168      0.1536  H       1  LIG       0.0000
    12  H12        1.7786      1.2588     -1.5886  H       1  LIG       0.0000
    13  H13        0.0002     -0.1936     -2.0109  H       1  LIG       0.0000
    14  H14       -0.0694     -2.4537     -0.3499  H       1  LIG       0.0000
    15  H15       -2.4945      1.1184     -0.5337  H       1  LIG       0.0000
    16  H16       -3.1496     -0.4166     -0.0152  H       1  LIG       0.0000
    17  H17       -2.4758     -0.2526     -1.6474  H       1  LIG       0.0000
    18  H18        0.0483      1.2111      2.4621  H       1  LIG       0.0000
    19  H19        1.0345      1.7386      1.0369  H       1  LIG       0.0000
    20  H20        2.2695     -0.2760      1.2599  H       1  LIG       0.0000
@<TRIPOS>BOND
    1     3    14  1
    2     8    19  1
    3     1    11  1
    4     2     3  1
    5     3     7  1
    6     3     4  1
    7     2    13  1
    8     9    20  1
    9     7     8  1
   10     8     9  1
   11     8    18  1
   12     1     2  1
   13     2     5  1
   14     1    10  1
   15     1    12  1
   16     7     9  1
   17     5     7  1
   18     4     5  1
   19     5     6  1
   20     6    16  1
   21     6    15  1
   22     6    17  1
