@<TRIPOS>MOLECULE
generated_molecule
20 20 0 0 0
SMALL
NO_CHARGES

@<TRIPOS>ATOM
     1  C1        -0.0155      0.0890      2.7341  C       1  LIG       0.0000
     2  O2        -0.9509      0.4138      1.7075  O       1  LIG       0.0000
     3  C3        -0.5047      0.9335      0.4590  C       1  LIG       0.0000
     4  C4        -1.6448      1.6147     -0.2840  C       1  LIG       0.0000
     5  C5         0.2587     -0.1129     -0.4941  C       1  LIG       0.0000
     6  C6         1.0574     -1.2332     -0.2344  C       1  LIG       0.0000
     7  C7         1.4124     -1.9577     -1.3683  C       1  LIG       0.0000
     8  C8         0.9200     -1.2769     -2.4342  C       1  LIG       0.0000
     9  N9         0.2805     -0.1946     -1.8869  N       1  LIG       0.0000
    10  H10        1.0344      0.1467      2.3335  H       1  LIG       0.0000
    11  H11       -0.0186      0.7803      3.5766  H       1  LIG       0.0000
    12  H12       -0.2797     -0.8945      3.0692  H       1  LIG       0.0000
    13  H13        0.1778      1.7101      0.8145  H       1  LIG       0.0000
    14  H14       -1.4167      2.6208     -0.6297  H       1  LIG       0.0000
    15  H15       -2.5229      1.7095      0.3488  H       1  LIG       0.0000
    16  H16       -1.9092      0.9975     -1.1521  H       1  LIG       0.0000
    17  H17        1.3305     -1.4814      0.7948  H       1  LIG       0.0000
    18  H18        1.9828     -2.8918     -1.4337  H       1  LIG       0.0000
    19  H19        1.0002     -1.5124     -3.4990  H       1  LIG       0.0000
    20  H20       -0.1917      0.5396     -2.4216  H       1  LIG       0.0000
@<TRIPOS>BOND
    1     4    16  1
    2     4    14  1
    3     4    15  1
    4     3     4  1
    5     6    17  1
    6     1    11  1
    7     3    13  1
    8     3     5  1
    9     2     3  1
   10     5     6  ar
   11     6     7  ar
   12     1    12  1
   13     1     2  1
   14     1    10  1
   15     5     9  ar
   16     7    18  1
   17     7     8  ar
   18     8     9  ar
   19     9    20  1
   20     8    19  1
