@<TRIPOS>MOLECULE
generated_molecule
23 23 0 0 0
SMALL
NO_CHARGES

@<TRIPOS>ATOM
     1  C1         2.5456     -0.0766      0.3014  C       1  LIG       0.0000
     2  C2         1.4426      0.9360     -0.1202  C       1  LIG       0.0000
     3  C3         0.1851      0.5223     -0.9537  C       1  LIG       0.0000
     4  O4        -0.4546     -0.7036     -1.3456  O       1  LIG       0.0000
     5  C5        -1.8081     -0.6967     -1.7375  C       1  LIG       0.0000
     6  C6        -2.2532      0.3144     -0.6265  C       1  LIG       0.0000
     7  C7        -0.9217      0.5500      0.0921  C       1  LIG       0.0000
     8  O8        -0.8307     -0.5486      1.0120  O       1  LIG       0.0000
     9  C9         0.0529     -0.8657      2.0493  C       1  LIG       0.0000
    10  H10        2.6818     -0.0480      1.3854  H       1  LIG       0.0000
    11  H11        3.5032      0.1282     -0.1873  H       1  LIG       0.0000
    12  H12        2.2918     -1.0994      0.0339  H       1  LIG       0.0000
    13  H13        1.0847      1.2813      0.8460  H       1  LIG       0.0000
    14  H14        1.9191      1.6939     -0.7544  H       1  LIG       0.0000
    15  H15        0.2885      0.9422     -1.9554  H       1  LIG       0.0000
    16  H16       -2.8635     -0.7540     -1.9898  H       1  LIG       0.0000
    17  H17       -1.3050     -1.3547     -2.4454  H       1  LIG       0.0000
    18  H18       -2.6857      1.2010     -1.0934  H       1  LIG       0.0000
    19  H19       -2.9648     -0.1274      0.0742  H       1  LIG       0.0000
    20  H20       -0.7309      1.5589      0.4786  H       1  LIG       0.0000
    21  H21       -0.4572     -0.7194      2.9931  H       1  LIG       0.0000
    22  H22        0.3094     -1.9003      1.9132  H       1  LIG       0.0000
    23  H23        0.9704     -0.2337      2.0301  H       1  LIG       0.0000
@<TRIPOS>BOND
    1     2    14  1
    2     1    11  1
    3     9    21  1
    4     9    22  1
    5     2    13  1
    6     1     2  1
    7     2     3  1
    8     8     9  1
    9     9    23  1
   10     1    10  1
   11     1    12  1
   12     7     8  1
   13     7    20  1
   14     3     7  1
   15     6     7  1
   16     3    15  1
   17     3     4  1
   18     4     5  1
   19     6    19  1
   20     6    18  1
   21     5     6  1
   22     5    16  1
   23     5    17  1
