@<TRIPOS>MOLECULE
generated_molecule
19 20 0 0 0
SMALL
NO_CHARGES

@<TRIPOS>ATOM
     1  O1         1.0871     -0.1622     -2.2395  O       1  LIG       0.0000
     2  C2         0.4117      0.0893     -1.1024  C       1  LIG       0.0000
     3  C3        -0.9445      0.7455     -0.8757  C       1  LIG       0.0000
     4  C4         0.3131      1.3544     -0.1940  C       1  LIG       0.0000
     5  C5         1.1507      0.4597      0.7347  C       1  LIG       0.0000
     6  C6         0.6953     -0.8474      0.0211  C       1  LIG       0.0000
     7  C7        -0.1115     -1.6165      1.0857  C       1  LIG       0.0000
     8  C8        -1.2166     -0.5718      0.9133  C       1  LIG       0.0000
     9  C9        -2.0953      0.2384      0.7864  C       1  LIG       0.0000
    10  H10        1.9267      0.2550     -2.3107  H       1  LIG       0.0000
    11  H11       -1.6912      1.1509     -0.1923  H       1  LIG       0.0000
    12  H12       -1.3373      0.3558     -1.8236  H       1  LIG       0.0000
    13  H13        0.4782      2.4228     -0.1749  H       1  LIG       0.0000
    14  H14        0.8830      0.4109      1.7960  H       1  LIG       0.0000
    15  H15        2.1813      0.7959      0.6094  H       1  LIG       0.0000
    16  H16        1.1040     -1.6095     -0.6378  H       1  LIG       0.0000
    17  H17       -0.3553     -2.6617      0.9165  H       1  LIG       0.0000
    18  H18        0.3916     -1.7957      2.0342  H       1  LIG       0.0000
    19  H19       -2.8711      0.9862      0.6538  H       1  LIG       0.0000
@<TRIPOS>BOND
    1     3    11  1
    2     3    12  1
    3     2     3  1
    4     3     4  1
    5     1    10  1
    6     7    17  1
    7     1     2  1
    8     2     4  1
    9     2     6  1
   10     4    13  1
   11     4     5  1
   12     7    18  1
   13     5    15  1
   14     6     7  1
   15     7     8  1
   16     5     6  1
   17     6    16  1
   18     5    14  1
   19     8     9  3
   20     9    19  1
