@<TRIPOS>MOLECULE
generated_molecule
15 15 0 0 0
SMALL
NO_CHARGES

@<TRIPOS>ATOM
     1  O1         2.5162     -0.7241     -0.4310  O       1  LIG       0.0000
     2  C2         1.8766      0.0119      0.2877  C       1  LIG       0.0000
     3  O3         2.2199      0.4379      1.6043  O       1  LIG       0.0000
     4  C4         0.6467      0.7732      0.1539  C       1  LIG       0.0000
     5  C5        -0.0312      0.9160      1.3017  C       1  LIG       0.0000
     6  N6        -0.7145     -0.3102      1.0848  N       1  LIG       0.0000
     7  C7        -0.7900     -0.3380     -0.3607  C       1  LIG       0.0000
     8  N8        -1.3444     -1.3511     -0.9428  N       1  LIG       0.0000
     9  H9        -1.9683     -1.2406     -1.7177  H       1  LIG       0.0000
    10  H10       -0.9484     -2.2420     -0.6135  H       1  LIG       0.0000
    11  C11       -0.1616      0.8679     -1.1061  C       1  LIG       0.0000
    12  H12       -0.0497      1.6279      2.1255  H       1  LIG       0.0000
    13  H13       -0.8599     -0.8524      1.9307  H       1  LIG       0.0000
    14  H14        0.6758      1.2686     -1.7003  H       1  LIG       0.0000
    15  H15       -1.0671      1.1549     -1.6167  H       1  LIG       0.0000
@<TRIPOS>BOND
    1    11    15  1
    2     2     3  1
    3     1     2  2
    4     2     4  1
    5     4    11  1
    6     4     5  2
    7     7    11  1
    8    11    14  1
    9     5    12  1
   10     5     6  1
   11     6     7  1
   12     7     8  1
   13     6    13  1
   14     8    10  1
   15     8     9  1
