@<TRIPOS>MOLECULE
generated_molecule
21 22 0 0 0
SMALL
NO_CHARGES

@<TRIPOS>ATOM
     1  C1         0.2258      1.4260     -1.1086  C       1  LIG       0.0000
     2  C2         0.5309      0.1767     -0.2385  C       1  LIG       0.0000
     3  C3         1.3971     -0.5950     -1.3038  C       1  LIG       0.0000
     4  O4         2.7806     -0.4346     -1.6648  O       1  LIG       0.0000
     5  C5         0.2712     -0.7000      1.0967  C       1  LIG       0.0000
     6  C6        -1.1535     -1.2555      1.4353  C       1  LIG       0.0000
     7  C7        -1.6122      0.2145      1.3096  C       1  LIG       0.0000
     8  O8        -2.2690      0.9069      0.2794  O       1  LIG       0.0000
     9  C9        -0.1455      0.7035      1.0833  C       1  LIG       0.0000
    10  H10       -0.1670      2.2709     -0.5522  H       1  LIG       0.0000
    11  H11       -0.5110      1.1415     -1.8531  H       1  LIG       0.0000
    12  H12        1.1310      1.7738     -1.5900  H       1  LIG       0.0000
    13  H13        0.9016     -0.3498     -2.2177  H       1  LIG       0.0000
    14  H14        1.4342     -1.6206     -0.8989  H       1  LIG       0.0000
    15  H15        3.4688     -1.0738     -1.8999  H       1  LIG       0.0000
    16  H16        1.0869     -1.1606      1.6583  H       1  LIG       0.0000
    17  H17       -0.7748     -2.2527      1.2109  H       1  LIG       0.0000
    18  H18       -2.1000     -1.4402      1.9515  H       1  LIG       0.0000
    19  H19       -2.2464      0.2524      2.1904  H       1  LIG       0.0000
    20  H20       -2.6404      0.4857     -0.4434  H       1  LIG       0.0000
    21  H21        0.3915      1.5311      1.5555  H       1  LIG       0.0000
@<TRIPOS>BOND
    1     4    15  1
    2     3     4  1
    3     1    11  1
    4     5    16  1
    5     3    13  1
    6     2     3  1
    7     3    14  1
    8     2     5  1
    9     5     6  1
   10     5     9  1
   11     6    18  1
   12     1     2  1
   13     1    10  1
   14     1    12  1
   15     2     9  1
   16     6    17  1
   17     6     7  1
   18     9    21  1
   19     7     9  1
   20     7    19  1
   21     7     8  1
   22     8    20  1
