@<TRIPOS>MOLECULE
generated_molecule
16 17 0 0 0
SMALL
NO_CHARGES

@<TRIPOS>ATOM
     1  N1        -1.2699     -0.8966      0.5731  N       1  LIG       0.0000
     2  C2        -0.4228      0.2209      0.7835  C       1  LIG       0.0000
     3  C3        -0.0850      1.1344      1.8980  C       1  LIG       0.0000
     4  N4         0.1569      1.8398      2.8339  N       1  LIG       0.0000
     5  C5        -0.7509      0.0963     -0.6032  C       1  LIG       0.0000
     6  N6        -0.1419     -1.1758     -0.8853  N       1  LIG       0.0000
     7  C7         1.2841     -0.6593     -0.9274  C       1  LIG       0.0000
     8  C8         0.7256      0.5748     -0.2046  C       1  LIG       0.0000
     9  O9         1.4708      1.7294     -0.0533  O       1  LIG       0.0000
    10  H10       -2.2599     -0.7477      0.4966  H       1  LIG       0.0000
    11  H11       -0.8810     -1.6201     -0.0782  H       1  LIG       0.0000
    12  H12       -1.6805      0.5051     -0.9296  H       1  LIG       0.0000
    13  H13       -0.9548     -1.6740     -1.1147  H       1  LIG       0.0000
    14  H14        1.9654     -1.2682     -0.3477  H       1  LIG       0.0000
    15  H15        1.6204     -0.4744     -1.9351  H       1  LIG       0.0000
    16  H16        1.2235      2.4155      0.4939  H       1  LIG       0.0000
@<TRIPOS>BOND
    1     9    16  1
    2     3     4  3
    3     8     9  1
    4     2     3  1
    5     1     2  1
    6     1    11  1
    7     1    10  1
    8     2     8  1
    9     2     5  1
   10     7     8  1
   11     5     8  1
   12     7    15  1
   13     7    14  1
   14     6     7  1
   15     5    12  1
   16     5     6  1
   17     6    13  1
