@<TRIPOS>MOLECULE
generated_molecule
13 13 0 0 0
SMALL
NO_CHARGES

@<TRIPOS>ATOM
     1  C1         0.5550      2.1268     -0.2311  C       1  LIG       0.0000
     2  C2         0.7039      0.7007      0.3222  C       1  LIG       0.0000
     3  O3         1.5438      0.4716      1.1583  O       1  LIG       0.0000
     4  C4        -0.2029     -0.3750     -0.1888  C       1  LIG       0.0000
     5  C5        -0.4473     -1.7315      0.1783  C       1  LIG       0.0000
     6  O6         0.0628     -2.3579      1.3085  O       1  LIG       0.0000
     7  N7        -1.2005     -2.3771     -0.6966  N       1  LIG       0.0000
     8  N8        -1.6585     -1.4963     -1.5768  N       1  LIG       0.0000
     9  O9        -1.0920     -0.2809     -1.2176  O       1  LIG       0.0000
    10  H10        0.8846      2.1802     -1.2691  H       1  LIG       0.0000
    11  H11       -0.4849      2.4662     -0.2174  H       1  LIG       0.0000
    12  H12        1.1435      2.8297      0.3610  H       1  LIG       0.0000
    13  H13        0.1925     -2.1565      2.0691  H       1  LIG       0.0000
@<TRIPOS>BOND
    1     7     8  ar
    2     8     9  ar
    3     5     7  ar
    4     4     9  ar
    5     4     5  ar
    6     5     6  1
    7     2     4  1
    8     6    13  1
    9     1    11  1
   10     1    10  1
   11     1     2  1
   12     2     3  2
   13     1    12  1
