@<TRIPOS>MOLECULE
generated_molecule
12 12 0 0 0
SMALL
NO_CHARGES

@<TRIPOS>ATOM
     1  F1        -2.7532     -0.5371      0.7366  F       1  LIG       0.0000
     2  C2        -1.4978     -0.2263      0.6990  C       1  LIG       0.0000
     3  C3        -0.8468     -0.2640     -0.5430  C       1  LIG       0.0000
     4  C4         0.5170      0.0429     -0.4681  C       1  LIG       0.0000
     5  C5         1.3268     -0.0505     -1.7131  C       1  LIG       0.0000
     6  O6         0.9241     -0.4300     -2.7834  O       1  LIG       0.0000
     7  N7         1.1107      0.4242      0.6934  N       1  LIG       0.0000
     8  C8         0.3458      0.4454      1.8365  C       1  LIG       0.0000
     9  N9        -0.9723      0.0978      1.8739  N       1  LIG       0.0000
    10  H10       -1.3280     -0.5092     -1.4931  H       1  LIG       0.0000
    11  H11        2.3699      0.2699     -1.5845  H       1  LIG       0.0000
    12  H12        0.8038      0.7370      2.7459  H       1  LIG       0.0000
@<TRIPOS>BOND
    1     1     2  1
    2     2     3  ar
    3     2     9  ar
    4     3     4  ar
    5     3    10  1
    6     4     5  1
    7     4     7  ar
    8     5     6  2
    9     5    11  1
   10     7     8  ar
   11     8     9  ar
   12     8    12  1
