@<TRIPOS>MOLECULE
generated_molecule
21 22 0 0 0
SMALL
NO_CHARGES

@<TRIPOS>ATOM
     1  C1         0.8908      2.6186     -1.1521  C       1  LIG       0.0000
     2  C2         0.0151      1.6416     -0.3215  C       1  LIG       0.0000
     3  C3         0.0883      0.0527     -0.3443  C       1  LIG       0.0000
     4  C4        -0.8206      0.3094      0.7903  C       1  LIG       0.0000
     5  C5        -0.3676     -1.1589      0.9143  C       1  LIG       0.0000
     6  C6        -0.9618     -2.3668      0.3910  C       1  LIG       0.0000
     7  O7        -0.2101     -1.3334     -0.5015  O       1  LIG       0.0000
     8  C8         0.8911     -1.6511      0.0263  C       1  LIG       0.0000
     9  O9         1.1280     -0.5493     -0.7790  O       1  LIG       0.0000
    10  H10        0.4201      3.5966     -1.2876  H       1  LIG       0.0000
    11  H11        1.0771      2.2622     -2.1633  H       1  LIG       0.0000
    12  H12        1.8502      2.7654     -0.6500  H       1  LIG       0.0000
    13  H13       -1.0118      1.7774     -0.6717  H       1  LIG       0.0000
    14  H14        0.3155      1.9433      0.6814  H       1  LIG       0.0000
    15  H15       -0.9976      0.4634      1.8318  H       1  LIG       0.0000
    16  H16       -1.3209      1.1354      0.2545  H       1  LIG       0.0000
    17  H17       -0.8243     -1.3650      1.8816  H       1  LIG       0.0000
    18  H18       -1.6422     -2.5465      1.2165  H       1  LIG       0.0000
    19  H19       -0.9575     -3.2820     -0.1492  H       1  LIG       0.0000
    20  H20        1.6712     -1.8726      0.7563  H       1  LIG       0.0000
    21  H21        0.7669     -2.4405     -0.7237  H       1  LIG       0.0000
@<TRIPOS>BOND
    1     6    18  1
    2     6    19  1
    3     5     6  1
    4     6     7  1
    5     5    17  1
    6     8    21  1
    7     5     8  1
    8     4     5  1
    9     3     7  1
   10     8    20  1
   11     8     9  1
   12     4    16  1
   13     3     4  1
   14     4    15  1
   15     3     9  1
   16     2     3  1
   17     1    11  1
   18     1     2  1
   19     2    14  1
   20     2    13  1
   21     1    10  1
   22     1    12  1
