@<TRIPOS>MOLECULE
generated_molecule
20 19 0 0 0
SMALL
NO_CHARGES

@<TRIPOS>ATOM
     1  C1         0.2765      0.3340     -1.6245  C       1  LIG       0.0000
     2  C2         0.1677      0.1743      0.0072  C       1  LIG       0.0000
     3  C3         0.2390      0.6502      1.4076  C       1  LIG       0.0000
     4  O4         0.1493      2.0946      1.2756  O       1  LIG       0.0000
     5  C5        -0.5025     -0.0072      1.3503  C       1  LIG       0.0000
     6  O6        -1.4327     -0.9192      2.0741  O       1  LIG       0.0000
     7  C7         0.7990     -0.3243     -1.3741  C       1  LIG       0.0000
     8  N8         0.1578     -1.4489     -1.8222  N       1  LIG       0.0000
     9  O9         1.7261      0.2255     -1.8860  O       1  LIG       0.0000
    10  H10        1.2799      0.0800     -1.8925  H       1  LIG       0.0000
    11  H11        0.0908      1.3211     -1.9867  H       1  LIG       0.0000
    12  H12       -0.4859     -0.2910     -2.0617  H       1  LIG       0.0000
    13  H13       -0.0683      0.8405      2.4722  H       1  LIG       0.0000
    14  H14        0.6103     -0.3656      1.5228  H       1  LIG       0.0000
    15  H15       -0.5158      2.6119      1.0109  H       1  LIG       0.0000
    16  H16        0.3571     -0.3885      1.9054  H       1  LIG       0.0000
    17  H17       -1.1043      0.9055      1.3456  H       1  LIG       0.0000
    18  H18       -1.5240     -1.8391      2.2341  H       1  LIG       0.0000
    19  H19        0.1009     -2.2929     -1.2582  H       1  LIG       0.0000
    20  H20       -0.3209     -1.3609     -2.7002  H       1  LIG       0.0000
@<TRIPOS>BOND
    1     7     9  2
    2     8    20  1
    3     7     8  1
    4     2     7  1
    5     8    19  1
    6     1    11  1
    7     5    16  1
    8     5    17  1
    9     1     2  1
   10     1    10  1
   11     1    12  1
   12     2     5  1
   13     2     3  1
   14     5     6  1
   15     3    13  1
   16     3     4  1
   17     3    14  1
   18     6    18  1
   19     4    15  1
