@<TRIPOS>MOLECULE
generated_molecule
8 8 0 0 0
SMALL
NO_CHARGES

@<TRIPOS>ATOM
     1  O1        -1.3377     -0.6361      1.3610  O       1  LIG       0.0000
     2  C2        -0.5203     -0.2511      0.5274  C       1  LIG       0.0000
     3  N3        -0.5366     -0.3447     -0.8490  N       1  LIG       0.0000
     4  N4         0.4966      0.3325     -1.4429  N       1  LIG       0.0000
     5  N5         1.2781      0.7889     -0.4886  N       1  LIG       0.0000
     6  N6         0.7148      0.3859      0.6864  N       1  LIG       0.0000
     7  H7        -1.2355     -0.8308     -1.3572  H       1  LIG       0.0000
     8  H8         1.1405      0.5555      1.5629  H       1  LIG       0.0000
@<TRIPOS>BOND
    1     1     2  2
    2     2     3  ar
    3     2     6  ar
    4     3     4  ar
    5     3     7  1
    6     4     5  ar
    7     5     6  ar
    8     6     8  1
