@<TRIPOS>MOLECULE
generated_molecule
15 15 0 0 0
SMALL
NO_CHARGES

@<TRIPOS>ATOM
     1  O1         2.0060     -1.2235      1.9848  O       1  LIG       0.0000
     2  C2         1.5882     -0.5661      1.0622  C       1  LIG       0.0000
     3  C3         0.1081     -0.2059      0.8573  C       1  LIG       0.0000
     4  C4         0.2185      1.2321      0.1598  C       1  LIG       0.0000
     5  O5        -0.1638      1.3468     -1.2089  O       1  LIG       0.0000
     6  C6        -0.6917      0.3754     -2.0416  C       1  LIG       0.0000
     7  O7        -0.7068      0.4389     -3.2143  O       1  LIG       0.0000
     8  O8        -1.2046     -0.6722     -1.2917  O       1  LIG       0.0000
     9  C9        -1.0639     -0.9248      0.0883  C       1  LIG       0.0000
    10  H10        2.3042     -0.1889      0.3058  H       1  LIG       0.0000
    11  H11       -0.2664     -0.4623      1.8366  H       1  LIG       0.0000
    12  H12        1.2223      1.6013      0.0493  H       1  LIG       0.0000
    13  H13       -0.4108      1.8612      0.7707  H       1  LIG       0.0000
    14  H14       -0.9797     -1.9909      0.0280  H       1  LIG       0.0000
    15  H15       -1.9595     -0.6211      0.6138  H       1  LIG       0.0000
@<TRIPOS>BOND
    1     4    12  1
    2     4    13  1
    3     4     5  1
    4     3     4  1
    5     5     6  1
    6     3    11  1
    7     1     2  2
    8     2     3  1
    9     3     9  1
   10     2    10  1
   11     6     7  2
   12     6     8  1
   13     8     9  1
   14     9    14  1
   15     9    15  1
