@<TRIPOS>MOLECULE
generated_molecule
18 18 0 0 0
SMALL
NO_CHARGES

@<TRIPOS>ATOM
     1  O1         0.8818      0.8734      1.7719  O       1  LIG       0.0000
     2  C2         0.7225      0.5297      0.4009  C       1  LIG       0.0000
     3  C3         0.8346     -0.7903     -0.4628  C       1  LIG       0.0000
     4  C4        -0.7751     -0.9670     -0.2828  C       1  LIG       0.0000
     5  O5        -2.1366     -1.2054      0.0010  O       1  LIG       0.0000
     6  C6        -1.5289     -0.2838     -0.9605  C       1  LIG       0.0000
     7  C7        -0.0807     -0.0137      0.1644  C       1  LIG       0.0000
     8  C8         1.1256      0.7206     -0.0894  C       1  LIG       0.0000
     9  N9         2.0728      1.3551     -0.2937  N       1  LIG       0.0000
    10  H10        1.4269      1.6131      2.0510  H       1  LIG       0.0000
    11  H11       -0.3240      0.8242      0.4045  H       1  LIG       0.0000
    12  H12        1.6328      0.9413     -0.1339  H       1  LIG       0.0000
    13  H13        1.2064     -0.9856     -1.4500  H       1  LIG       0.0000
    14  H14        1.5588     -1.5077     -0.1681  H       1  LIG       0.0000
    15  H15       -2.5349     -0.4371      0.5041  H       1  LIG       0.0000
    16  H16       -1.8657      0.5999     -1.4505  H       1  LIG       0.0000
    17  H17       -2.2236     -1.1298     -1.2565  H       1  LIG       0.0000
    18  H18        0.0070     -0.1370      1.2504  H       1  LIG       0.0000
@<TRIPOS>BOND
    1     3    14  1
    2     5    15  1
    3     4     5  1
    4     1    10  1
    5     7    18  1
    6     2    11  1
    7     3     4  1
    8     2     3  1
    9     3    13  1
   10     4     7  1
   11     4     6  1
   12     7     8  1
   13     6     7  1
   14     8     9  3
   15     1     2  1
   16     2    12  1
   17     6    16  1
   18     6    17  1
