@<TRIPOS>MOLECULE
generated_molecule
21 22 0 0 0
SMALL
NO_CHARGES

@<TRIPOS>ATOM
     1  C1        -2.1646      0.8233      0.3877  C       1  LIG       0.0000
     2  C2        -0.7233      0.9433     -0.1729  C       1  LIG       0.0000
     3  C3        -0.4935     -0.3639      0.5811  C       1  LIG       0.0000
     4  C4        -1.8565     -0.4591      1.2143  C       1  LIG       0.0000
     5  C5         0.7488     -0.6647      0.3225  C       1  LIG       0.0000
     6  C6         1.5035      0.6460      0.1735  C       1  LIG       0.0000
     7  C7         1.1694      0.1977     -1.2994  C       1  LIG       0.0000
     8  O8         1.4754     -1.1563     -1.4491  O       1  LIG       0.0000
     9  C9         1.5974     -1.8123     -0.1897  C       1  LIG       0.0000
    10  H10       -2.7279      0.8623     -0.5460  H       1  LIG       0.0000
    11  H11       -2.6106      1.4434      1.1652  H       1  LIG       0.0000
    12  H12       -0.8277      2.0446     -0.0764  H       1  LIG       0.0000
    13  H13       -0.0074      0.6787     -0.9818  H       1  LIG       0.0000
    14  H14       -1.4684     -1.0067      2.0704  H       1  LIG       0.0000
    15  H15       -2.9135     -0.7182      1.1855  H       1  LIG       0.0000
    16  H16        1.2113      1.7052      0.2227  H       1  LIG       0.0000
    17  H17        2.3810      0.5345      0.8253  H       1  LIG       0.0000
    18  H18        1.8453      0.7420     -1.9422  H       1  LIG       0.0000
    19  H19        0.1152      0.2836     -1.5204  H       1  LIG       0.0000
    20  H20        1.1518     -2.7874     -0.2006  H       1  LIG       0.0000
    21  H21        2.5942     -1.9361      0.2302  H       1  LIG       0.0000
@<TRIPOS>BOND
    1     1    11  1
    2     1    10  1
    3     1     4  1
    4     1     2  1
    5     4    15  1
    6     2    12  1
    7     3     4  1
    8     4    14  1
    9     2     3  1
   10     2    13  1
   11     3     5  2
   12     9    20  1
   13     6    17  1
   14     7    19  1
   15     5     6  1
   16     5     9  1
   17     6     7  1
   18     6    16  1
   19     9    21  1
   20     8     9  1
   21     7     8  1
   22     7    18  1
