@<TRIPOS>MOLECULE
generated_molecule
23 24 0 0 0
SMALL
NO_CHARGES

@<TRIPOS>ATOM
     1  C1        -0.7727     -1.7748     -0.1915  C       1  LIG       0.0000
     2  C2        -0.5268     -0.2947      0.1568  C       1  LIG       0.0000
     3  C3         1.0063     -0.1937      0.3202  C       1  LIG       0.0000
     4  C4         0.2553      1.0146      0.9570  C       1  LIG       0.0000
     5  C5        -0.9058      0.2554      1.5614  C       1  LIG       0.0000
     6  C6         0.3142      0.4477     -0.4255  C       1  LIG       0.0000
     7  C7        -0.5512      1.6101     -0.8799  C       1  LIG       0.0000
     8  C8         1.5083     -0.4325     -0.8365  C       1  LIG       0.0000
     9  O9         0.5468     -0.8784      0.0507  O       1  LIG       0.0000
    10  H10       -1.4842     -2.2109      0.5101  H       1  LIG       0.0000
    11  H11        0.1266     -2.3793     -0.1503  H       1  LIG       0.0000
    12  H12       -1.1601     -1.8272     -1.2065  H       1  LIG       0.0000
    13  H13       -0.9533      0.4526     -0.4800  H       1  LIG       0.0000
    14  H14        1.9159      0.3929      0.1368  H       1  LIG       0.0000
    15  H15        1.1979     -1.2552      0.3051  H       1  LIG       0.0000
    16  H16        0.4421      2.0196      1.2400  H       1  LIG       0.0000
    17  H17       -1.8642      0.7519      1.6793  H       1  LIG       0.0000
    18  H18       -0.7237     -0.2699      2.4958  H       1  LIG       0.0000
    19  H19       -1.1876      1.9716     -0.0792  H       1  LIG       0.0000
    20  H20       -1.1827      1.2848     -1.7032  H       1  LIG       0.0000
    21  H21        0.0520      2.4432     -1.2260  H       1  LIG       0.0000
    22  H22        1.4589     -0.7733     -1.8610  H       1  LIG       0.0000
    23  H23        2.4879     -0.3545     -0.3736  H       1  LIG       0.0000
@<TRIPOS>BOND
    1     3    15  1
    2     7    21  1
    3     7    19  1
    4     1    11  1
    5     3    14  1
    6     7    20  1
    7     6     7  1
    8     3     4  1
    9     2     3  1
   10     1    10  1
   11     1     2  1
   12     1    12  1
   13     4    16  1
   14     4     6  1
   15     4     5  1
   16     2    13  1
   17     2     5  1
   18     6     9  1
   19     6     8  1
   20     8     9  1
   21     5    18  1
   22     5    17  1
   23     8    22  1
   24     8    23  1
