@<TRIPOS>MOLECULE
generated_molecule
19 20 0 0 0
SMALL
NO_CHARGES

@<TRIPOS>ATOM
     1  C1         0.3166      1.9515     -0.9333  C       1  LIG       0.0000
     2  C2        -0.0766      0.8125      0.1009  C       1  LIG       0.0000
     3  C3         0.8634     -0.2430      0.9443  C       1  LIG       0.0000
     4  C4         0.9462     -1.7811      0.5339  C       1  LIG       0.0000
     5  C5        -0.4581     -1.7123     -0.0585  C       1  LIG       0.0000
     6  N6        -1.3043     -0.5667      0.2602  N       1  LIG       0.0000
     7  C7        -0.2096     -0.3659     -0.7286  C       1  LIG       0.0000
     8  C8        -1.3114      1.4138      0.6862  C       1  LIG       0.0000
     9  N9        -2.2414      1.8719      1.1681  N       1  LIG       0.0000
    10  H10       -0.1042      2.9018     -0.5916  H       1  LIG       0.0000
    11  H11       -0.0332      1.7128     -1.9270  H       1  LIG       0.0000
    12  H12        1.3933      2.0624     -1.0298  H       1  LIG       0.0000
    13  H13        0.3835     -0.0634      1.9035  H       1  LIG       0.0000
    14  H14        1.9468     -0.0666      0.8767  H       1  LIG       0.0000
    15  H15        1.4417     -2.3540     -0.2702  H       1  LIG       0.0000
    16  H16        1.3607     -2.3468      1.3836  H       1  LIG       0.0000
    17  H17       -1.0431     -2.5706     -0.3409  H       1  LIG       0.0000
    18  H18       -2.1377     -0.3592     -0.3035  H       1  LIG       0.0000
    19  H19        0.2674     -0.2971     -1.6738  H       1  LIG       0.0000
@<TRIPOS>BOND
    1     3    13  1
    2     3    14  1
    3     4    16  1
    4     3     4  1
    5     2     3  1
    6     4    15  1
    7     1    11  1
    8     4     5  1
    9     8     9  3
   10     2     8  1
   11     1     2  1
   12     2     7  1
   13     1    10  1
   14     1    12  1
   15     5     6  1
   16     5     7  1
   17     5    17  1
   18     6     7  1
   19     6    18  1
   20     7    19  1
