@<TRIPOS>MOLECULE
generated_molecule
16 17 0 0 0
SMALL
NO_CHARGES

@<TRIPOS>ATOM
     1  C1         1.3107      1.4911     -1.0084  C       1  LIG       0.0000
     2  C2         0.9955      0.1857     -0.1926  C       1  LIG       0.0000
     3  C3         0.2403     -1.1055     -0.6442  C       1  LIG       0.0000
     4  O4         0.6768     -1.8562     -1.4841  O       1  LIG       0.0000
     5  C5        -1.1158     -1.4198     -0.0189  C       1  LIG       0.0000
     6  N6        -2.2076     -0.8823      0.8388  N       1  LIG       0.0000
     7  C7        -0.8348     -0.5834      1.2796  C       1  LIG       0.0000
     8  C8         0.0384      0.6074      0.9301  C       1  LIG       0.0000
     9  O9         0.0443      1.6997      1.4646  O       1  LIG       0.0000
    10  H10        1.8461      1.2541     -1.9315  H       1  LIG       0.0000
    11  H11        1.9051      2.1926     -0.4211  H       1  LIG       0.0000
    12  H12        0.4092      2.0248     -1.3135  H       1  LIG       0.0000
    13  H13        1.9575     -0.2308      0.0702  H       1  LIG       0.0000
    14  H14       -1.7049     -2.2494     -0.4090  H       1  LIG       0.0000
    15  H15       -2.8115     -0.0984      0.5829  H       1  LIG       0.0000
    16  H16       -0.7495     -1.0295      2.2570  H       1  LIG       0.0000
@<TRIPOS>BOND
    1     3     4  2
    2     5    14  1
    3     3     5  1
    4     2     3  1
    5     1    11  1
    6     5     6  1
    7     5     7  1
    8     2    13  1
    9     1     2  1
   10     2     8  1
   11     1    10  1
   12     1    12  1
   13     6    15  1
   14     6     7  1
   15     7     8  1
   16     7    16  1
   17     8     9  2
