@<TRIPOS>MOLECULE
generated_molecule
22 23 0 0 0
SMALL
NO_CHARGES

@<TRIPOS>ATOM
     1  C1        -1.9923     -0.1103      0.3854  C       1  LIG       0.0000
     2  C2        -0.9529      0.9915      0.0686  C       1  LIG       0.0000
     3  C3         0.1542      1.7182     -0.6861  C       1  LIG       0.0000
     4  O4         1.1557      2.7554     -0.8740  O       1  LIG       0.0000
     5  C5         1.2123      0.5321     -0.5608  C       1  LIG       0.0000
     6  C6         0.5684     -0.7340      0.0944  C       1  LIG       0.0000
     7  C7         0.3542     -2.0623     -0.6678  C       1  LIG       0.0000
     8  C8         0.5794     -0.8130      1.6507  C       1  LIG       0.0000
     9  N9        -0.1290      0.2023      1.0027  N       1  LIG       0.0000
    10  H10       -1.9746     -0.9146     -0.3454  H       1  LIG       0.0000
    11  H11       -2.9874      0.3442      0.3861  H       1  LIG       0.0000
    12  H12       -1.8101     -0.5879      1.3464  H       1  LIG       0.0000
    13  H13       -1.4766      1.8555     -0.1958  H       1  LIG       0.0000
    14  H14       -0.6416      2.2531     -1.1734  H       1  LIG       0.0000
    15  H15        2.0058      2.8003     -0.6467  H       1  LIG       0.0000
    16  H16        1.5389      1.0839     -1.4289  H       1  LIG       0.0000
    17  H17        2.0191     -0.0532     -0.0759  H       1  LIG       0.0000
    18  H18       -0.6598     -2.4424     -0.7149  H       1  LIG       0.0000
    19  H19        0.6438     -1.8806     -1.6930  H       1  LIG       0.0000
    20  H20        0.9266     -2.8435     -0.1838  H       1  LIG       0.0000
    21  H21       -0.0559     -1.5190      2.1824  H       1  LIG       0.0000
    22  H22        1.5217     -0.5757      2.1300  H       1  LIG       0.0000
@<TRIPOS>BOND
    1     4    15  1
    2     3    14  1
    3     3     4  1
    4     3     5  1
    5     2     3  1
    6     5    17  1
    7     5    16  1
    8     1    11  1
    9     5     6  1
   10     1    10  1
   11     2    13  1
   12     1     2  1
   13     2     9  1
   14     1    12  1
   15     8    22  1
   16     6     8  1
   17     6     9  1
   18     6     7  1
   19     8     9  1
   20     8    21  1
   21     7    18  1
   22     7    20  1
   23     7    19  1
