@<TRIPOS>MOLECULE
generated_molecule
18 19 0 0 0
SMALL
NO_CHARGES

@<TRIPOS>ATOM
     1  O1        -2.0491      0.1971      2.5132  O       1  LIG       0.0000
     2  C2        -1.4245     -0.2857      1.3607  C       1  LIG       0.0000
     3  C3        -1.4713     -0.2570     -0.1843  C       1  LIG       0.0000
     4  C4        -0.2714      0.5577     -0.6667  C       1  LIG       0.0000
     5  N5         0.9853      0.3434     -1.4012  N       1  LIG       0.0000
     6  C6         1.9669     -0.5640     -1.8705  C       1  LIG       0.0000
     7  C7         1.9675     -0.1480     -0.3749  C       1  LIG       0.0000
     8  C8         0.8921      0.6526      0.3352  C       1  LIG       0.0000
     9  O9         0.9320      1.1910      1.4212  O       1  LIG       0.0000
    10  H10       -1.7654      1.0738      2.7885  H       1  LIG       0.0000
    11  H11       -0.9188      0.5944      1.5862  H       1  LIG       0.0000
    12  H12       -1.2792     -1.4056      1.3642  H       1  LIG       0.0000
    13  H13       -1.5803     -1.3069     -0.5035  H       1  LIG       0.0000
    14  H14       -2.3097      0.2437     -0.6736  H       1  LIG       0.0000
    15  H15       -0.8458      1.3073     -1.1482  H       1  LIG       0.0000
    16  H16        1.4660     -0.5311     -2.8411  H       1  LIG       0.0000
    17  H17        2.8788     -1.1416     -1.8496  H       1  LIG       0.0000
    18  H18        2.8269     -0.5211      0.1443  H       1  LIG       0.0000
@<TRIPOS>BOND
    1     2    11  1
    2     3    14  1
    3     4    15  1
    4     1    10  1
    5     1     2  1
    6     8     9  2
    7     2     3  1
    8     2    12  1
    9     3     4  1
   10     3    13  1
   11     4     8  1
   12     4     5  1
   13     7     8  1
   14     5     7  1
   15     5     6  1
   16     7    18  1
   17     6     7  1
   18     6    17  1
   19     6    16  1
