@<TRIPOS>MOLECULE
generated_molecule
18 18 0 0 0
SMALL
NO_CHARGES

@<TRIPOS>ATOM
     1  C1         1.1061      0.4319      1.1776  C       1  LIG       0.0000
     2  C2         0.1530      0.3039      0.0171  C       1  LIG       0.0000
     3  C3         0.9104     -0.9587     -0.3675  C       1  LIG       0.0000
     4  O4        -0.3668      1.6025     -0.2880  O       1  LIG       0.0000
     5  C5        -1.2958      1.5500     -1.4155  C       1  LIG       0.0000
     6  C6        -1.2841      0.2951     -0.4853  C       1  LIG       0.0000
     7  C7        -0.7914     -0.8295      0.3815  C       1  LIG       0.0000
     8  C8        -0.3912     -1.7127      1.0561  C       1  LIG       0.0000
     9  H9         0.5906      0.4856      2.1350  H       1  LIG       0.0000
    10  H10        1.6863      1.3405      1.0906  H       1  LIG       0.0000
    11  H11        1.7553     -0.4305      1.1684  H       1  LIG       0.0000
    12  H12        1.7342     -1.0589      0.3282  H       1  LIG       0.0000
    13  H13        0.3095     -1.8579     -0.3148  H       1  LIG       0.0000
    14  H14        1.2527     -0.8732     -1.3923  H       1  LIG       0.0000
    15  H15       -0.7665      1.8034     -2.3098  H       1  LIG       0.0000
    16  H16       -2.2652      1.9957     -1.5968  H       1  LIG       0.0000
    17  H17       -2.3299      0.3947     -0.8478  H       1  LIG       0.0000
    18  H18       -0.0072     -2.4820      1.6634  H       1  LIG       0.0000
@<TRIPOS>BOND
    1     3    12  1
    2     1    10  1
    3     2     4  1
    4     4     5  1
    5     3    13  1
    6     2     3  1
    7     3    14  1
    8     1     2  1
    9     1     9  1
   10     1    11  1
   11     2     6  1
   12     5    15  1
   13     5    16  1
   14     5     6  1
   15     6    17  1
   16     6     7  1
   17     7     8  3
   18     8    18  1
