@<TRIPOS>MOLECULE
generated_molecule
25 25 0 0 0
SMALL
NO_CHARGES

@<TRIPOS>ATOM
     1  C1        -0.0099     -1.3931      1.1203  C       1  LIG       0.0000
     2  C2         0.9249     -0.4647      0.2204  C       1  LIG       0.0000
     3  C3         2.2276     -1.0024     -0.4282  C       1  LIG       0.0000
     4  O4         2.7218     -0.2573     -1.5181  O       1  LIG       0.0000
     5  C5         0.0778      0.4735      1.0804  C       1  LIG       0.0000
     6  C6        -0.9734     -0.0682      0.0874  C       1  LIG       0.0000
     7  C7        -0.4374     -0.6491     -1.2708  C       1  LIG       0.0000
     8  C8        -1.0833      1.3518      0.7936  C       1  LIG       0.0000
     9  C9        -2.0446      2.2036     -0.0565  C       1  LIG       0.0000
    10  H10       -1.0629     -1.0754      1.0649  H       1  LIG       0.0000
    11  H11        0.0386     -2.4341      0.7852  H       1  LIG       0.0000
    12  H12        0.3219     -1.3787      2.1654  H       1  LIG       0.0000
    13  H13        1.2422      0.1263     -0.5677  H       1  LIG       0.0000
    14  H14        2.0818     -1.9991     -0.7998  H       1  LIG       0.0000
    15  H15        3.0193     -1.0007      0.3324  H       1  LIG       0.0000
    16  H16        3.0506      0.5994     -1.5175  H       1  LIG       0.0000
    17  H17        0.4695      0.8483      2.0163  H       1  LIG       0.0000
    18  H18       -1.8442     -0.5965      0.4425  H       1  LIG       0.0000
    19  H19       -0.0334     -1.6622     -1.1570  H       1  LIG       0.0000
    20  H20       -1.2653     -0.6666     -1.9851  H       1  LIG       0.0000
    21  H21        0.3754     -0.0953     -1.7487  H       1  LIG       0.0000
    22  H22       -0.9085      1.8561      1.7471  H       1  LIG       0.0000
    23  H23       -2.7730      1.5949     -0.5911  H       1  LIG       0.0000
    24  H24       -2.5620      2.9011      0.6161  H       1  LIG       0.0000
    25  H25       -1.5534      2.7884     -0.8315  H       1  LIG       0.0000
@<TRIPOS>BOND
    1     7    21  1
    2     7    20  1
    3     7    19  1
    4     6     7  1
    5     1    11  1
    6     6    18  1
    7     5     6  1
    8     6     8  1
    9     1    10  1
   10     1    12  1
   11     1     2  1
   12     2    13  1
   13     9    23  1
   14     9    25  1
   15     5     8  1
   16     2     5  1
   17     5    17  1
   18     8     9  1
   19     8    22  1
   20     2     3  1
   21     9    24  1
   22     3     4  1
   23     3    15  1
   24     3    14  1
   25     4    16  1
