@<TRIPOS>MOLECULE
generated_molecule
17 16 0 0 0
SMALL
NO_CHARGES

@<TRIPOS>ATOM
     1  C1        -1.0261     -2.9516      1.4464  C       1  LIG       0.0000
     2  C2        -0.7026     -2.1650      0.5903  C       1  LIG       0.0000
     3  C3        -0.3042     -1.1693     -0.4726  C       1  LIG       0.0000
     4  C4        -0.2384      0.1773      0.2984  C       1  LIG       0.0000
     5  C5         0.6038      1.3047     -0.4126  C       1  LIG       0.0000
     6  C6        -0.2878      1.3153     -1.5914  C       1  LIG       0.0000
     7  C7        -1.0309      1.3069     -2.5450  C       1  LIG       0.0000
     8  C8         1.4019      1.4555      0.8403  C       1  LIG       0.0000
     9  C9         2.0315      1.5612      1.8557  C       1  LIG       0.0000
    10  H10       -1.3246     -3.6512      2.2218  H       1  LIG       0.0000
    11  H11       -0.7545     -0.7746     -1.3809  H       1  LIG       0.0000
    12  H12        0.4325     -1.8433     -0.9069  H       1  LIG       0.0000
    13  H13       -1.1937      0.6895      0.4256  H       1  LIG       0.0000
    14  H14        0.1871     -0.1233      1.2458  H       1  LIG       0.0000
    15  H15        1.2998      1.9291     -0.9799  H       1  LIG       0.0000
    16  H16       -1.6844      1.2931     -3.3816  H       1  LIG       0.0000
    17  H17        2.5906      1.6458      2.7465  H       1  LIG       0.0000
@<TRIPOS>BOND
    1     4    14  1
    2     5    15  1
    3     3    11  1
    4     9    17  1
    5     8     9  3
    6     5     8  1
    7     1    10  1
    8     1     2  3
    9     2     3  1
   10     3     4  1
   11     4     5  1
   12     4    13  1
   13     3    12  1
   14     5     6  1
   15     6     7  3
   16     7    16  1
