@<TRIPOS>MOLECULE
generated_molecule
17 18 0 0 0
SMALL
NO_CHARGES

@<TRIPOS>ATOM
     1  C1        -0.5232     -2.2004     -0.1605  C       1  LIG       0.0000
     2  C2        -0.1326     -1.0687      0.4365  C       1  LIG       0.0000
     3  C3         0.1669     -0.2268      0.8360  C       1  LIG       0.0000
     4  C4         0.6057      0.9633      1.3034  C       1  LIG       0.0000
     5  O5         1.4016     -0.1146      0.9586  O       1  LIG       0.0000
     6  C6         0.4084     -0.0914     -0.0307  C       1  LIG       0.0000
     7  C7         0.0052      0.6835     -1.2604  C       1  LIG       0.0000
     8  C8         0.1167      1.4774     -0.0058  C       1  LIG       0.0000
     9  O9        -0.2275      2.7983     -0.1096  O       1  LIG       0.0000
    10  H10       -0.5370     -3.0299      0.5303  H       1  LIG       0.0000
    11  H11        0.2148     -2.3423     -0.9596  H       1  LIG       0.0000
    12  H12       -1.5404     -2.0787     -0.5189  H       1  LIG       0.0000
    13  H13        0.7192      1.7664      2.0602  H       1  LIG       0.0000
    14  H14        0.1465     -1.1321     -0.0828  H       1  LIG       0.0000
    15  H15       -0.7212     -0.0027     -1.7045  H       1  LIG       0.0000
    16  H16        0.4800      1.4111     -1.9350  H       1  LIG       0.0000
    17  H17       -0.5832      3.1874      0.6428  H       1  LIG       0.0000
@<TRIPOS>BOND
    1     9    17  1
    2     8     9  1
    3     1    10  1
    4     4    13  1
    5     1    11  1
    6     4     8  1
    7     7     8  1
    8     6     8  1
    9     1     2  1
   10     1    12  1
   11     2     3  3
   12     3     4  1
   13     4     5  1
   14     7    15  1
   15     6     7  1
   16     7    16  1
   17     5     6  1
   18     6    14  1
