@<TRIPOS>MOLECULE
generated_molecule
19 21 0 0 0
SMALL
NO_CHARGES

@<TRIPOS>ATOM
     1  O1        -2.0175     -2.5195      1.5690  O       1  LIG       0.0000
     2  C2        -1.2375     -1.5776      1.5950  C       1  LIG       0.0000
     3  C3        -0.6281     -0.9076      0.3310  C       1  LIG       0.0000
     4  C4         0.2115     -2.1548     -0.0043  C       1  LIG       0.0000
     5  C5         0.9140     -0.8126      0.4346  C       1  LIG       0.0000
     6  C6         0.9768      0.5529     -0.3284  C       1  LIG       0.0000
     7  C7         0.7869      2.0977     -0.3677  C       1  LIG       0.0000
     8  C8        -0.5639      1.9059     -1.0514  C       1  LIG       0.0000
     9  C9        -0.5334      0.3475     -0.6986  C       1  LIG       0.0000
    10  H10       -0.9913     -1.0766      2.5506  H       1  LIG       0.0000
    11  H11        1.1179     -2.7524      0.0604  H       1  LIG       0.0000
    12  H12       -0.6680     -2.7081     -0.3987  H       1  LIG       0.0000
    13  H13        1.5869     -0.9526      1.2711  H       1  LIG       0.0000
    14  H14        2.0315      0.6462     -0.5850  H       1  LIG       0.0000
    15  H15        0.7225      2.5576      0.6067  H       1  LIG       0.0000
    16  H16        1.5292      2.6486     -0.9459  H       1  LIG       0.0000
    17  H17       -0.6618      2.9888     -0.8496  H       1  LIG       0.0000
    18  H18       -1.2707      1.7438     -1.8388  H       1  LIG       0.0000
    19  H19       -1.3051     -0.0272     -1.3499  H       1  LIG       0.0000
@<TRIPOS>BOND
    1     6    14  1
    2     5    13  1
    3     5     6  1
    4     6     7  1
    5     6     9  1
    6     3     5  1
    7     4     5  1
    8     7    15  1
    9     9    19  1
   10     2    10  1
   11     2     3  1
   12     1     2  2
   13     7    16  1
   14     7     8  1
   15     3     9  1
   16     8     9  1
   17     3     4  1
   18     4    11  1
   19     4    12  1
   20     8    17  1
   21     8    18  1
