@<TRIPOS>MOLECULE
generated_molecule
16 16 0 0 0
SMALL
NO_CHARGES

@<TRIPOS>ATOM
     1  C1         0.5212     -1.9348      0.3866  C       1  LIG       0.0000
     2  C2         0.1063     -0.6057     -0.3017  C       1  LIG       0.0000
     3  C3         0.1460      0.5207      0.5341  C       1  LIG       0.0000
     4  N4         0.9100      0.4619      1.6776  N       1  LIG       0.0000
     5  C5        -0.6766      1.6427      0.1218  C       1  LIG       0.0000
     6  O6        -0.9555      2.6580      0.8313  O       1  LIG       0.0000
     7  N7        -1.1987      1.6560     -1.1932  N       1  LIG       0.0000
     8  N8        -0.9414      0.6996     -2.1251  N       1  LIG       0.0000
     9  C9        -0.2612     -0.3994     -1.6623  C       1  LIG       0.0000
    10  H10        1.5414     -2.1916      0.1159  H       1  LIG       0.0000
    11  H11        0.4179     -1.8352      1.4652  H       1  LIG       0.0000
    12  H12       -0.1001     -2.7628      0.0603  H       1  LIG       0.0000
    13  H13        0.5358     -0.1477      2.3877  H       1  LIG       0.0000
    14  H14        1.7915      0.9717      1.6596  H       1  LIG       0.0000
    15  H15       -1.7841      2.3922     -1.5144  H       1  LIG       0.0000
    16  H16       -0.0522     -1.1254     -2.4433  H       1  LIG       0.0000
@<TRIPOS>BOND
    1     1    11  1
    2     4    13  1
    3     9    16  1
    4     8     9  ar
    5     7     8  ar
    6     4    14  1
    7     2     9  ar
    8     7    15  1
    9     5     7  ar
   10     1     2  1
   11     2     3  ar
   12     1    10  1
   13     1    12  1
   14     5     6  2
   15     3     5  ar
   16     3     4  1
