@<TRIPOS>MOLECULE
generated_molecule
20 21 0 0 0
SMALL
NO_CHARGES

@<TRIPOS>ATOM
     1  C1        -1.5715     -0.8375     -0.9927  C       1  LIG       0.0000
     2  C2        -1.2255     -0.0250      0.2968  C       1  LIG       0.0000
     3  C3        -0.7497      1.4646      0.4921  C       1  LIG       0.0000
     4  C4         0.6818      1.1109      0.0498  C       1  LIG       0.0000
     5  N5         1.5262      1.7549     -0.8128  N       1  LIG       0.0000
     6  O6         1.5115      2.0580     -2.0471  O       1  LIG       0.0000
     7  C7         1.1138     -0.0784      0.8151  C       1  LIG       0.0000
     8  C8         1.2337     -1.5742      1.0932  C       1  LIG       0.0000
     9  C9        -0.1637     -1.0681      0.7923  C       1  LIG       0.0000
    10  H10       -0.8498     -1.6443     -1.1489  H       1  LIG       0.0000
    11  H11       -1.5325     -0.2490     -1.9068  H       1  LIG       0.0000
    12  H12       -2.5790     -1.2576     -0.9116  H       1  LIG       0.0000
    13  H13       -2.0752      0.3088      0.8711  H       1  LIG       0.0000
    14  H14       -0.9554      2.3667     -0.1058  H       1  LIG       0.0000
    15  H15       -1.0684      1.7128      1.5008  H       1  LIG       0.0000
    16  H16        2.1498      1.6983     -2.7036  H       1  LIG       0.0000
    17  H17        1.9919      0.3846      1.2174  H       1  LIG       0.0000
    18  H18        0.8390     -2.5941      1.1952  H       1  LIG       0.0000
    19  H19        2.3037     -1.4792      1.2645  H       1  LIG       0.0000
    20  H20       -0.5807     -2.0523      1.0411  H       1  LIG       0.0000
@<TRIPOS>BOND
    1     6    16  1
    2     5     6  1
    3     3    14  1
    4     3    15  1
    5     4     5  1
    6     3     4  1
    7     2     3  1
    8     1    11  1
    9     4     7  1
   10     1    10  1
   11     1     2  1
   12     1    12  1
   13     2    13  1
   14     2     9  1
   15     8    19  1
   16     7     8  1
   17     7     9  1
   18     7    17  1
   19     8     9  1
   20     8    18  1
   21     9    20  1
