@<TRIPOS>MOLECULE
generated_molecule
23 23 0 0 0
SMALL
NO_CHARGES

@<TRIPOS>ATOM
     1  C1         0.0554      3.1734      0.7816  C       1  LIG       0.0000
     2  C2         1.0019      1.9350      0.7148  C       1  LIG       0.0000
     3  C3         0.5032      0.4445      0.7518  C       1  LIG       0.0000
     4  C4         0.7864     -0.9491      0.0105  C       1  LIG       0.0000
     5  O5         0.9002     -2.1487      0.7821  O       1  LIG       0.0000
     6  C6        -0.2346     -2.9895      0.6874  C       1  LIG       0.0000
     7  C7        -1.1078     -2.2521     -0.3246  C       1  LIG       0.0000
     8  C8        -0.4444     -1.2106     -0.8721  C       1  LIG       0.0000
     9  C9        -0.7573     -0.3274     -2.0873  C       1  LIG       0.0000
    10  H10        0.0559      3.6532     -0.2002  H       1  LIG       0.0000
    11  H11        0.2665      3.9924      1.4712  H       1  LIG       0.0000
    12  H12       -0.9050      2.8092      1.1259  H       1  LIG       0.0000
    13  H13        1.4797      2.1944     -0.2230  H       1  LIG       0.0000
    14  H14        1.7196      1.8999      1.5403  H       1  LIG       0.0000
    15  H15       -0.4295      0.8044      0.4505  H       1  LIG       0.0000
    16  H16        0.7128     -0.0557      1.7013  H       1  LIG       0.0000
    17  H17        1.7164     -1.0583     -0.5575  H       1  LIG       0.0000
    18  H18       -0.0597     -3.9876      0.3033  H       1  LIG       0.0000
    19  H19       -0.6091     -3.0577      1.6957  H       1  LIG       0.0000
    20  H20       -2.1140     -2.5679     -0.5372  H       1  LIG       0.0000
    21  H21       -0.8206     -0.9186     -2.9982  H       1  LIG       0.0000
    22  H22       -1.7104      0.1853     -1.9410  H       1  LIG       0.0000
    23  H23       -0.0057      0.4313     -2.2753  H       1  LIG       0.0000
@<TRIPOS>BOND
    1     7    20  1
    2     9    21  1
    3     9    22  1
    4     7     8  2
    5     6     7  1
    6     8     9  1
    7     9    23  1
    8     6    19  1
    9     4     8  1
   10     6    18  1
   11     5     6  1
   12     3    15  1
   13     3    16  1
   14     3     4  1
   15     4     5  1
   16     4    17  1
   17     2     3  1
   18     1    11  1
   19     1    10  1
   20     1     2  1
   21     1    12  1
   22     2    14  1
   23     2    13  1
