@<TRIPOS>MOLECULE
generated_molecule
13 13 0 0 0
SMALL
NO_CHARGES

@<TRIPOS>ATOM
     1  O1         0.2862     -2.5769      0.8001  O       1  LIG       0.0000
     2  C2        -0.2522     -1.4832      0.8562  C       1  LIG       0.0000
     3  C3         0.4448     -0.1169      0.8836  C       1  LIG       0.0000
     4  C4         0.1188      0.9897     -0.2004  C       1  LIG       0.0000
     5  O5         1.3978      0.6644     -0.6808  O       1  LIG       0.0000
     6  C6         1.8787     -0.1427      0.3290  C       1  LIG       0.0000
     7  O7         2.9381     -0.6242      0.5750  O       1  LIG       0.0000
     8  C8        -1.0560      0.8775     -1.0848  C       1  LIG       0.0000
     9  C9        -2.0306      0.7951     -1.8323  C       1  LIG       0.0000
    10  H10       -1.3556     -1.4380      0.8822  H       1  LIG       0.0000
    11  H11        0.4267      0.2984      1.8938  H       1  LIG       0.0000
    12  H12        0.0945      2.0282      0.0624  H       1  LIG       0.0000
    13  H13       -2.8911      0.7286     -2.4840  H       1  LIG       0.0000
@<TRIPOS>BOND
    1     9    13  1
    2     8     9  3
    3     4    12  1
    4     4     8  1
    5     4     5  1
    6     3     4  1
    7     1     2  2
    8     5     6  1
    9     2     3  1
   10     2    10  1
   11     3    11  1
   12     3     6  1
   13     6     7  2
