@<TRIPOS>MOLECULE
generated_molecule
16 17 0 0 0
SMALL
NO_CHARGES

@<TRIPOS>ATOM
     1  O1        -0.6116     -1.6462     -2.6498  O       1  LIG       0.0000
     2  C2        -0.3464     -0.9798     -1.6973  C       1  LIG       0.0000
     3  C3        -1.0176      0.3578     -1.3095  C       1  LIG       0.0000
     4  C4        -0.5707      0.7962      0.1193  C       1  LIG       0.0000
     5  C5         0.2640      0.1100      1.2440  C       1  LIG       0.0000
     6  C6         1.0697     -0.8756      0.3993  C       1  LIG       0.0000
     7  C7         0.6151      0.4635      1.0430  C       1  LIG       0.0000
     8  O8         0.6678     -1.4379     -0.8388  O       1  LIG       0.0000
     9  H9        -2.1041      0.3489     -1.2965  H       1  LIG       0.0000
    10  H10       -0.7880      1.0272     -2.1425  H       1  LIG       0.0000
    11  H11       -1.2487      1.6405      0.1649  H       1  LIG       0.0000
    12  H12        0.9067      0.9113      1.6490  H       1  LIG       0.0000
    13  H13       -0.3464     -0.5975      1.8404  H       1  LIG       0.0000
    14  H14        1.8826     -1.5306      0.5979  H       1  LIG       0.0000
    15  H15        1.0644      1.4533      0.8487  H       1  LIG       0.0000
    16  H16        0.5632     -0.0409      2.0280  H       1  LIG       0.0000
@<TRIPOS>BOND
    1     5    13  1
    2     5    12  1
    3     5     6  1
    4     4     5  1
    5     6    14  1
    6     4    11  1
    7     6     8  1
    8     6     7  1
    9     3     4  1
   10     4     7  1
   11     3     9  1
   12     7    15  1
   13     2     8  1
   14     2     3  1
   15     3    10  1
   16     7    16  1
   17     1     2  2
