@<TRIPOS>MOLECULE
generated_molecule
17 18 0 0 0
SMALL
NO_CHARGES

@<TRIPOS>ATOM
     1  O1         1.7642      2.7365      0.6281  O       1  LIG       0.0000
     2  C2         1.0736      1.7663      0.8569  C       1  LIG       0.0000
     3  C3        -0.4410      1.5744      0.9752  C       1  LIG       0.0000
     4  C4        -0.5803      0.2910      0.0808  C       1  LIG       0.0000
     5  C5        -0.8855     -0.4123     -1.3010  C       1  LIG       0.0000
     6  C6        -0.2646     -1.7913     -1.1148  C       1  LIG       0.0000
     7  C7         0.4883     -1.8537     -0.0049  C       1  LIG       0.0000
     8  C8         0.8666     -0.4637      0.3668  C       1  LIG       0.0000
     9  O9         1.4817      0.4818      1.1742  O       1  LIG       0.0000
    10  H10       -0.9589      1.3145      1.8761  H       1  LIG       0.0000
    11  H11       -0.7789      2.5849      0.7333  H       1  LIG       0.0000
    12  H12       -1.6100      0.4702      0.3340  H       1  LIG       0.0000
    13  H13       -0.5691      0.3092     -2.0457  H       1  LIG       0.0000
    14  H14       -1.8639     -0.7520     -1.6546  H       1  LIG       0.0000
    15  H15       -0.4254     -2.6329     -1.7757  H       1  LIG       0.0000
    16  H16        0.8183     -2.7404      0.5296  H       1  LIG       0.0000
    17  H17        1.8849     -0.8825      0.3417  H       1  LIG       0.0000
@<TRIPOS>BOND
    1     8    17  1
    2     1     2  2
    3     2     9  1
    4     8     9  1
    5     2     3  1
    6     4    12  1
    7     3    10  1
    8     4     8  1
    9     7     8  1
   10     3     4  1
   11     3    11  1
   12     4     5  1
   13     7    16  1
   14     6     7  2
   15     5    13  1
   16     5     6  1
   17     5    14  1
   18     6    15  1
