@<TRIPOS>MOLECULE
generated_molecule
15 14 0 0 0
SMALL
NO_CHARGES

@<TRIPOS>ATOM
     1  C1        -0.2903      0.4320     -0.8768  C       1  LIG       0.0000
     2  C2         0.7208      1.1382     -0.0080  C       1  LIG       0.0000
     3  O3         1.4722      2.0209     -0.3519  O       1  LIG       0.0000
     4  N4         0.6756      0.7011      1.3431  N       1  LIG       0.0000
     5  C5         0.4702     -0.6777      1.1361  C       1  LIG       0.0000
     6  O6         0.6861     -1.4519      2.0342  O       1  LIG       0.0000
     7  C7        -0.0630     -0.9976     -0.2525  C       1  LIG       0.0000
     8  O8        -1.3411     -0.4353     -0.4952  O       1  LIG       0.0000
     9  H9        -1.2784      0.8581     -0.7392  H       1  LIG       0.0000
    10  H10       -0.3540     -0.6217     -0.6352  H       1  LIG       0.0000
    11  H11        0.0283      0.5594     -1.9081  H       1  LIG       0.0000
    12  H12        0.7847      1.1865      2.1844  H       1  LIG       0.0000
    13  H13        0.6031     -0.5985     -0.9931  H       1  LIG       0.0000
    14  H14       -0.1255     -2.0832     -0.2851  H       1  LIG       0.0000
    15  H15       -1.9888     -0.0305     -0.1528  H       1  LIG       0.0000
@<TRIPOS>BOND
    1     1    10  1
    2     7    14  1
    3     5     6  2
    4     2     3  2
    5     7     8  1
    6     8    15  1
    7     4     5  1
    8     5     7  1
    9     2     4  1
   10     1     2  1
   11     1     9  1
   12     4    12  1
   13     1    11  1
   14     7    13  1
