@<TRIPOS>MOLECULE
generated_molecule
15 16 0 0 0
SMALL
NO_CHARGES

@<TRIPOS>ATOM
     1  O1         0.0041     -1.0768      2.4468  O       1  LIG       0.0000
     2  C2        -0.2151     -0.4654      1.4244  C       1  LIG       0.0000
     3  C3        -1.5452      0.0942      0.8972  C       1  LIG       0.0000
     4  C4        -1.3673     -0.0566     -0.6185  C       1  LIG       0.0000
     5  C5         0.1421     -0.0105     -0.7506  C       1  LIG       0.0000
     6  C6         0.8038     -0.0228      0.4239  C       1  LIG       0.0000
     7  C7         2.1249      0.3521      0.2219  C       1  LIG       0.0000
     8  N8         2.4442      0.3161     -1.0724  N       1  LIG       0.0000
     9  N9         1.2543      0.0347     -1.6227  N       1  LIG       0.0000
    10  H10       -2.5508      0.1616      0.5022  H       1  LIG       0.0000
    11  H11       -1.5604      0.4068      1.9445  H       1  LIG       0.0000
    12  H12       -1.8295     -0.9967     -0.9169  H       1  LIG       0.0000
    13  H13       -1.8184      0.7409     -1.2194  H       1  LIG       0.0000
    14  H14        2.8704      0.6123      0.9862  H       1  LIG       0.0000
    15  H15        1.2428     -0.0900     -2.6467  H       1  LIG       0.0000
@<TRIPOS>BOND
    1     4    12  1
    2     3    10  1
    3     7    14  1
    4     7     8  ar
    5     8     9  ar
    6     6     7  ar
    7     9    15  1
    8     5     9  ar
    9     5     6  ar
   10     2     6  1
   11     1     2  2
   12     4     5  1
   13     2     3  1
   14     3     4  1
   15     4    13  1
   16     3    11  1
