@<TRIPOS>MOLECULE
generated_molecule
25 25 0 0 0
SMALL
NO_CHARGES

@<TRIPOS>ATOM
     1  C1         2.3434      1.8653     -0.3732  C       1  LIG       0.0000
     2  C2         1.3607      0.9448      0.3927  C       1  LIG       0.0000
     3  C3        -0.1331      0.5569      0.2759  C       1  LIG       0.0000
     4  C4        -0.4793     -0.7237      1.0937  C       1  LIG       0.0000
     5  C5        -1.6436     -1.4937      0.4345  C       1  LIG       0.0000
     6  C6        -2.1052     -0.1246     -0.0307  C       1  LIG       0.0000
     7  C7        -0.6231     -0.1774     -0.6140  C       1  LIG       0.0000
     8  C8         0.0853     -1.5549     -0.8075  C       1  LIG       0.0000
     9  O9        -0.5812     -2.3229      0.1353  O       1  LIG       0.0000
    10  H10        1.8429      2.7299     -0.7868  H       1  LIG       0.0000
    11  H11        2.8243      1.3033     -1.1789  H       1  LIG       0.0000
    12  H12        3.1374      2.2761      0.2597  H       1  LIG       0.0000
    13  H13        1.7730     -0.0556      0.2471  H       1  LIG       0.0000
    14  H14        1.3853      1.4999      1.3188  H       1  LIG       0.0000
    15  H15       -0.7648      1.3657      0.6300  H       1  LIG       0.0000
    16  H16       -0.4170      0.3966     -0.7559  H       1  LIG       0.0000
    17  H17       -0.7542     -0.4204      2.1001  H       1  LIG       0.0000
    18  H18        0.2890     -1.4861      1.0618  H       1  LIG       0.0000
    19  H19       -2.5581     -2.0635      0.5045  H       1  LIG       0.0000
    20  H20       -2.9738     -0.0267     -0.6833  H       1  LIG       0.0000
    21  H21       -2.4933      0.5611      0.7334  H       1  LIG       0.0000
    22  H22       -0.7453      0.7992     -0.1436  H       1  LIG       0.0000
    23  H23        0.0959     -0.2959     -1.4236  H       1  LIG       0.0000
    24  H24        0.9313     -2.1885     -0.5282  H       1  LIG       0.0000
    25  H25        0.2038     -1.3648     -1.8619  H       1  LIG       0.0000
@<TRIPOS>BOND
    1     2    14  1
    2     1    11  1
    3     1    10  1
    4     1     2  1
    5     1    12  1
    6     2    13  1
    7     2     3  1
    8     4    18  1
    9     3    15  1
   10     3     4  1
   11     3    16  1
   12     4    17  1
   13     4     5  1
   14     6    21  1
   15     8    25  1
   16     5     9  1
   17     8     9  1
   18     5     6  1
   19     5    19  1
   20     6    20  1
   21     6     7  1
   22     7     8  1
   23     8    24  1
   24     7    23  1
   25     7    22  1
