@<TRIPOS>MOLECULE
generated_molecule
16 17 0 0 0
SMALL
NO_CHARGES

@<TRIPOS>ATOM
     1  O1         0.8823      1.2545      3.0261  O       1  LIG       0.0000
     2  C2         0.6238      1.0306      1.8891  C       1  LIG       0.0000
     3  C3        -0.3961      1.5481      0.8625  C       1  LIG       0.0000
     4  C4         0.1232      0.2982      0.0901  C       1  LIG       0.0000
     5  C5         0.5544     -1.1652      0.0024  C       1  LIG       0.0000
     6  C6        -0.3950     -1.4364     -1.1865  C       1  LIG       0.0000
     7  C7        -0.4042      0.1093     -1.3435  C       1  LIG       0.0000
     8  O8         1.1901      0.1955      0.9561  O       1  LIG       0.0000
     9  H9        -1.3882      1.6002      1.3031  H       1  LIG       0.0000
    10  H10       -0.2599      2.4766      0.3239  H       1  LIG       0.0000
    11  H11        1.4941     -1.5279     -0.4213  H       1  LIG       0.0000
    12  H12        0.4205     -1.4957      1.0357  H       1  LIG       0.0000
    13  H13       -1.1616     -2.0898     -0.7695  H       1  LIG       0.0000
    14  H14       -0.1598     -1.8111     -2.1807  H       1  LIG       0.0000
    15  H15       -1.4229      0.2835     -1.7112  H       1  LIG       0.0000
    16  H16        0.2993      0.7295     -1.8762  H       1  LIG       0.0000
@<TRIPOS>BOND
    1     1     2  2
    2     3     9  1
    3     5    12  1
    4     2     3  1
    5     2     8  1
    6     3     4  1
    7     3    10  1
    8     5    11  1
    9     4     8  1
   10     4     5  1
   11     5     6  1
   12     4     7  1
   13     6    14  1
   14     6     7  1
   15     6    13  1
   16     7    16  1
   17     7    15  1
