@<TRIPOS>MOLECULE
generated_molecule
19 20 0 0 0
SMALL
NO_CHARGES

@<TRIPOS>ATOM
     1  O1        -2.6149     -2.6595     -0.0068  O       1  LIG       0.0000
     2  C2        -1.8416     -1.8162      0.3635  C       1  LIG       0.0000
     3  N3        -0.4262     -1.9680      0.2550  N       1  LIG       0.0000
     4  C4         0.6865     -1.0355      0.0183  C       1  LIG       0.0000
     5  C5        -0.0159      0.1585      0.6777  C       1  LIG       0.0000
     6  C6         0.9089      1.2546      0.3148  C       1  LIG       0.0000
     7  C7         0.1482      2.4865     -0.1963  C       1  LIG       0.0000
     8  N8        -0.5610      1.1433     -0.2843  N       1  LIG       0.0000
     9  C9         0.5317      0.4663     -0.9982  C       1  LIG       0.0000
    10  H10       -2.2097     -0.8948      0.8352  H       1  LIG       0.0000
    11  H11        0.0865     -2.7882      0.2800  H       1  LIG       0.0000
    12  H12        0.9279     -1.0138     -1.0412  H       1  LIG       0.0000
    13  H13        1.6281     -1.2063      0.5393  H       1  LIG       0.0000
    14  H14       -0.4921      0.0827      1.6418  H       1  LIG       0.0000
    15  H15        1.6626      1.3372      1.0767  H       1  LIG       0.0000
    16  H16       -0.7583      3.0484     -0.2182  H       1  LIG       0.0000
    17  H17        0.9795      3.1484     -0.3465  H       1  LIG       0.0000
    18  H18        1.2241     -0.3589     -0.9107  H       1  LIG       0.0000
    19  H19        0.1359      0.6151     -2.0003  H       1  LIG       0.0000
@<TRIPOS>BOND
    1     7    16  1
    2     7    17  1
    3     7     8  1
    4     6     7  1
    5     3    11  1
    6     8     9  1
    7     5     8  1
    8     9    19  1
    9     4    13  1
   10     2    10  1
   11     2     3  1
   12     3     4  1
   13     6     9  1
   14     9    18  1
   15     1     2  2
   16     4     5  1
   17     4    12  1
   18     5     6  1
   19     6    15  1
   20     5    14  1
