@<TRIPOS>MOLECULE
generated_molecule
15 15 0 0 0
SMALL
NO_CHARGES

@<TRIPOS>ATOM
     1  C1         1.2643      1.9590      0.3685  C       1  LIG       0.0000
     2  C2         1.5959      0.8905      0.6615  C       1  LIG       0.0000
     3  C3         2.0331     -0.5262      1.0527  C       1  LIG       0.0000
     4  N4         0.5908     -0.4814      1.1553  N       1  LIG       0.0000
     5  C5        -0.3045     -0.5001      0.1474  C       1  LIG       0.0000
     6  C6        -1.6053      0.2230     -0.1381  C       1  LIG       0.0000
     7  C7        -1.5768     -0.7726     -1.3693  C       1  LIG       0.0000
     8  O8        -0.3551     -1.2866     -0.9154  O       1  LIG       0.0000
     9  H9         0.9200      2.9104      0.1215  H       1  LIG       0.0000
    10  H10        2.4286     -1.4162      0.5392  H       1  LIG       0.0000
    11  H11        2.7866     -0.5525      1.8227  H       1  LIG       0.0000
    12  H12       -2.6270      0.4674     -0.4234  H       1  LIG       0.0000
    13  H13       -1.3056      0.9036      0.6614  H       1  LIG       0.0000
    14  H14       -2.3619     -1.5266     -1.3378  H       1  LIG       0.0000
    15  H15       -1.4830     -0.2919     -2.3462  H       1  LIG       0.0000
@<TRIPOS>BOND
    1     7    14  1
    2     6    12  1
    3     6     7  1
    4     7    15  1
    5     7     8  1
    6     6    13  1
    7     5     6  1
    8     5     8  1
    9     1     9  1
   10     4     5  1
   11     1     2  3
   12     3     4  1
   13     2     3  1
   14     3    11  1
   15     3    10  1
