@<TRIPOS>MOLECULE
generated_molecule
21 21 0 0 0
SMALL
NO_CHARGES

@<TRIPOS>ATOM
     1  C1         0.8286      3.0417      0.3953  C       1  LIG       0.0000
     2  C2         0.1854      1.6342      0.4553  C       1  LIG       0.0000
     3  C3        -0.5179      0.2425      0.6217  C       1  LIG       0.0000
     4  C4        -0.0908     -1.0239      1.4159  C       1  LIG       0.0000
     5  C5        -0.4509     -2.0554      0.3257  C       1  LIG       0.0000
     6  C6        -1.3914     -1.5568     -0.7801  C       1  LIG       0.0000
     7  C7        -0.4872     -0.6746     -0.6367  C       1  LIG       0.0000
     8  C8         0.2220     -1.1695     -1.8302  C       1  LIG       0.0000
     9  C9         0.8496     -1.5298     -2.7915  C       1  LIG       0.0000
    10  H10        1.0184      3.4850      1.3807  H       1  LIG       0.0000
    11  H11        0.1920      3.7580     -0.1300  H       1  LIG       0.0000
    12  H12        1.8007      3.0299     -0.1111  H       1  LIG       0.0000
    13  H13       -0.7491      2.1029      0.1818  H       1  LIG       0.0000
    14  H14        1.1722      1.1945      0.6149  H       1  LIG       0.0000
    15  H15       -1.4228      0.5390      1.1364  H       1  LIG       0.0000
    16  H16       -0.5558     -1.5114      2.2730  H       1  LIG       0.0000
    17  H17        0.8898     -0.6861      1.7987  H       1  LIG       0.0000
    18  H18        0.2360     -2.4918     -0.4592  H       1  LIG       0.0000
    19  H19       -0.8600     -2.6856      1.1290  H       1  LIG       0.0000
    20  H20       -2.2423     -1.7339     -1.3749  H       1  LIG       0.0000
    21  H21        1.3735     -1.9087     -3.6147  H       1  LIG       0.0000
@<TRIPOS>BOND
    1     6    20  1
    2     5    18  1
    3     5     6  1
    4     6     7  2
    5     5    19  1
    6     4     5  1
    7     9    21  1
    8     8     9  3
    9     7     8  1
   10     3     7  1
   11     3     4  1
   12     4    16  1
   13     4    17  1
   14     3    15  1
   15     2     3  1
   16     2    14  1
   17     2    13  1
   18     1     2  1
   19     1    11  1
   20     1    10  1
   21     1    12  1
