@<TRIPOS>MOLECULE
generated_molecule
23 23 0 0 0
SMALL
NO_CHARGES

@<TRIPOS>ATOM
     1  C1         1.0237     -1.8803     -1.3267  C       1  LIG       0.0000
     2  C2         0.7555     -0.4027     -0.9556  C       1  LIG       0.0000
     3  C3        -0.1745      0.7359     -1.1154  C       1  LIG       0.0000
     4  C4         0.7181      1.9721     -1.4541  C       1  LIG       0.0000
     5  C5        -0.3447     -0.2446      0.1311  C       1  LIG       0.0000
     6  C6        -1.5613     -1.1858      0.4464  C       1  LIG       0.0000
     7  C7         0.2051      0.0331      1.5543  C       1  LIG       0.0000
     8  C8        -0.5495      0.9739      2.5097  C       1  LIG       0.0000
     9  O9         1.2136     -0.4990      1.8937  O       1  LIG       0.0000
    10  H10        2.0498     -1.9310     -1.6884  H       1  LIG       0.0000
    11  H11        0.3464     -2.2854     -2.0871  H       1  LIG       0.0000
    12  H12        0.9085     -2.5757     -0.4874  H       1  LIG       0.0000
    13  H13        1.6142      0.2428     -1.1065  H       1  LIG       0.0000
    14  H14       -1.1695      0.8155     -1.5710  H       1  LIG       0.0000
    15  H15        0.2875      2.4936     -2.3210  H       1  LIG       0.0000
    16  H16        1.7446      1.7392     -1.6950  H       1  LIG       0.0000
    17  H17        0.7730      2.6334     -0.5926  H       1  LIG       0.0000
    18  H18       -1.8604     -1.8362     -0.3746  H       1  LIG       0.0000
    19  H19       -1.2927     -1.8220      1.2822  H       1  LIG       0.0000
    20  H20       -2.4554     -0.6105      0.6801  H       1  LIG       0.0000
    21  H21       -0.4347      2.0070      2.1733  H       1  LIG       0.0000
    22  H22       -1.6350      0.8428      2.5940  H       1  LIG       0.0000
    23  H23       -0.1623      0.7838      3.5106  H       1  LIG       0.0000
@<TRIPOS>BOND
    1     1    11  1
    2     1    12  1
    3     1    10  1
    4     1     2  1
    5     4    17  1
    6     2    13  1
    7     2     3  1
    8     2     5  1
    9     4    15  1
   10     3     4  1
   11     4    16  1
   12     3    14  1
   13     3     5  1
   14     6    18  1
   15     5     6  1
   16     5     7  1
   17     7     9  2
   18     6    19  1
   19     6    20  1
   20     7     8  1
   21     8    21  1
   22     8    22  1
   23     8    23  1
