@<TRIPOS>MOLECULE
generated_molecule
16 16 0 0 0
SMALL
NO_CHARGES

@<TRIPOS>ATOM
     1  C1         0.4059     -1.9067     -0.5847  C       1  LIG       0.0000
     2  N2         0.0363     -0.5496     -0.0880  N       1  LIG       0.0000
     3  C3        -0.0668      0.7367     -0.5184  C       1  LIG       0.0000
     4  N4         0.7895      1.4362     -1.3860  N       1  LIG       0.0000
     5  C5        -1.2870      1.1403     -0.0304  C       1  LIG       0.0000
     6  C6        -1.3151      0.4792      1.1739  C       1  LIG       0.0000
     7  C7        -0.1304     -0.2216      1.1374  C       1  LIG       0.0000
     8  O8         0.7498     -0.6984      2.0261  O       1  LIG       0.0000
     9  H9         1.1269     -1.8294     -1.3950  H       1  LIG       0.0000
    10  H10        0.7852     -2.4411      0.2893  H       1  LIG       0.0000
    11  H11       -0.4062     -2.4647     -1.0321  H       1  LIG       0.0000
    12  H12        0.6041      1.7049     -2.2744  H       1  LIG       0.0000
    13  H13        1.2511      2.1656     -0.8708  H       1  LIG       0.0000
    14  H14       -2.0091      1.8750     -0.4254  H       1  LIG       0.0000
    15  H15       -2.0610      0.5764      1.9887  H       1  LIG       0.0000
    16  H16        1.5270     -0.0028      1.9898  H       1  LIG       0.0000
@<TRIPOS>BOND
    1     4    13  1
    2     4    12  1
    3     3     4  1
    4     5    14  1
    5     3     5  ar
    6     2     3  ar
    7     1    10  1
    8     5     6  ar
    9     1     2  1
   10     2     7  ar
   11     1     9  1
   12     1    11  1
   13     6     7  ar
   14     6    15  1
   15     7     8  1
   16     8    16  1
