@<TRIPOS>MOLECULE
generated_molecule
21 22 0 0 0
SMALL
NO_CHARGES

@<TRIPOS>ATOM
     1  O1         2.5206      0.8492      1.6756  O       1  LIG       0.0000
     2  C2         1.3998      1.2688      0.9424  C       1  LIG       0.0000
     3  C3         0.3045      1.6196     -0.0580  C       1  LIG       0.0000
     4  C4         0.1527      0.1075     -0.3285  C       1  LIG       0.0000
     5  C5         1.6726      0.0867     -0.0502  C       1  LIG       0.0000
     6  C6        -0.1548     -1.3957     -0.1649  C       1  LIG       0.0000
     7  C7        -1.6066     -1.4662     -0.6805  C       1  LIG       0.0000
     8  C8        -2.2890     -0.1130     -0.4431  C       1  LIG       0.0000
     9  O9        -1.0860      0.5014     -0.8841  O       1  LIG       0.0000
    10  H10        2.8083     -0.0047      1.7706  H       1  LIG       0.0000
    11  H11        0.9395      2.0643      1.4899  H       1  LIG       0.0000
    12  H12       -0.6909      1.7050     -0.4755  H       1  LIG       0.0000
    13  H13        0.8044      2.5961     -0.0370  H       1  LIG       0.0000
    14  H14        1.8598     -0.1841     -1.0949  H       1  LIG       0.0000
    15  H15        2.4394     -0.3324      0.6143  H       1  LIG       0.0000
    16  H16        0.0462     -1.6242      0.8808  H       1  LIG       0.0000
    17  H17        0.4215     -2.1048     -0.7729  H       1  LIG       0.0000
    18  H18       -2.0200     -1.4110     -1.6965  H       1  LIG       0.0000
    19  H19       -1.7549     -2.4146     -0.1839  H       1  LIG       0.0000
    20  H20       -2.8289     -0.3391      0.4615  H       1  LIG       0.0000
    21  H21       -2.9382      0.5910     -0.9650  H       1  LIG       0.0000
@<TRIPOS>BOND
    1     1    10  1
    2     1     2  1
    3     5    15  1
    4     2    11  1
    5     5    14  1
    6     2     5  1
    7     2     3  1
    8     4     5  1
    9     6    16  1
   10     3     4  1
   11     3    13  1
   12     3    12  1
   13     4     6  1
   14     4     9  1
   15     6    17  1
   16     6     7  1
   17     8     9  1
   18     8    20  1
   19     7     8  1
   20     8    21  1
   21     7    18  1
   22     7    19  1
