@<TRIPOS>MOLECULE
generated_molecule
18 19 0 0 0
SMALL
NO_CHARGES

@<TRIPOS>ATOM
     1  O1         1.2658     -1.5157      1.6591  O       1  LIG       0.0000
     2  C2         1.7661     -0.4488      1.4334  C       1  LIG       0.0000
     3  N3         1.1638      0.7444      0.9027  N       1  LIG       0.0000
     4  C4        -0.1210      1.3719      0.4292  C       1  LIG       0.0000
     5  C5        -1.5155      0.7655      0.1139  C       1  LIG       0.0000
     6  C6        -1.5428     -0.7367     -0.3078  C       1  LIG       0.0000
     7  C7        -0.2235     -1.3047     -0.8119  C       1  LIG       0.0000
     8  C8         0.7809     -0.4829     -1.2020  C       1  LIG       0.0000
     9  C9         0.9828      0.8648     -0.5633  C       1  LIG       0.0000
    10  H10        2.7789     -0.2238      1.6450  H       1  LIG       0.0000
    11  H11       -0.0396      2.3515      0.8865  H       1  LIG       0.0000
    12  H12       -1.8976      1.4411     -0.6496  H       1  LIG       0.0000
    13  H13       -2.1782      0.8414      0.9816  H       1  LIG       0.0000
    14  H14       -1.5402     -1.8457     -0.2163  H       1  LIG       0.0000
    15  H15       -2.5512     -0.3858     -0.3310  H       1  LIG       0.0000
    16  H16       -0.1072     -2.3909     -0.8838  H       1  LIG       0.0000
    17  H17        1.4882     -0.7063     -1.9901  H       1  LIG       0.0000
    18  H18        1.4903      1.6611     -1.0955  H       1  LIG       0.0000
@<TRIPOS>BOND
    1     9    18  1
    2     4    11  1
    3     3     9  1
    4     3     4  1
    5     2     3  1
    6     4     9  1
    7     8     9  1
    8     4     5  1
    9     2    10  1
   10     1     2  2
   11     8    17  1
   12     7     8  2
   13     5    13  1
   14     5    12  1
   15     5     6  1
   16     6     7  1
   17     7    16  1
   18     6    15  1
   19     6    14  1
