@<TRIPOS>MOLECULE
generated_molecule
22 23 0 0 0
SMALL
NO_CHARGES

@<TRIPOS>ATOM
     1  C1        -0.6354      1.8685      0.1463  C       1  LIG       0.0000
     2  C2        -0.1622      0.6708     -0.7137  C       1  LIG       0.0000
     3  C3        -1.4621     -0.0665     -1.0000  C       1  LIG       0.0000
     4  C4         1.1976      0.8951     -1.4456  C       1  LIG       0.0000
     5  N5         0.9037     -0.3599     -0.9145  N       1  LIG       0.0000
     6  C6         1.1570     -0.8744      0.4088  C       1  LIG       0.0000
     7  C7        -0.3944     -0.8930      0.5959  C       1  LIG       0.0000
     8  O8        -0.2365     -1.0692      1.9658  O       1  LIG       0.0000
     9  C9         0.9929     -1.6351      1.7143  C       1  LIG       0.0000
    10  H10       -1.7118      1.9413      0.1841  H       1  LIG       0.0000
    11  H11       -0.2885      1.7464      1.1684  H       1  LIG       0.0000
    12  H12       -0.2768      2.8104     -0.2677  H       1  LIG       0.0000
    13  H13       -1.2701     -1.0579     -1.4027  H       1  LIG       0.0000
    14  H14       -2.0447     -0.1765     -0.0926  H       1  LIG       0.0000
    15  H15       -2.0504      0.4974     -1.7105  H       1  LIG       0.0000
    16  H16        1.5663      1.8609     -1.1202  H       1  LIG       0.0000
    17  H17        1.5797      0.5121     -2.4033  H       1  LIG       0.0000
    18  H18        2.2206     -0.8574      0.3057  H       1  LIG       0.0000
    19  H19       -0.9138     -1.7781      0.2165  H       1  LIG       0.0000
    20  H20       -0.8123      0.0706      0.3015  H       1  LIG       0.0000
    21  H21        0.7395     -2.6911      1.7702  H       1  LIG       0.0000
    22  H22        1.9017     -1.4144      2.2933  H       1  LIG       0.0000
@<TRIPOS>BOND
    1     3    13  1
    2     1    11  1
    3     4    16  1
    4     3    14  1
    5     2     3  1
    6     3    15  1
    7     1    10  1
    8     1     2  1
    9     1    12  1
   10     4    17  1
   11     2     4  1
   12     4     5  1
   13     2     5  1
   14     5     6  1
   15     6    18  1
   16     6     9  1
   17     6     7  1
   18     9    21  1
   19     9    22  1
   20     8     9  1
   21     7    20  1
   22     7    19  1
   23     7     8  1
