@<TRIPOS>MOLECULE
generated_molecule
19 20 0 0 0
SMALL
NO_CHARGES

@<TRIPOS>ATOM
     1  C1         1.4176      1.7275      0.3015  C       1  LIG       0.0000
     2  N2        -0.0351      1.7486      0.4578  N       1  LIG       0.0000
     3  C3        -0.7990      0.7428      0.0010  C       1  LIG       0.0000
     4  C4        -2.0100     -0.0289      0.4801  C       1  LIG       0.0000
     5  O5        -2.5330     -0.5456      1.6808  O       1  LIG       0.0000
     6  C6        -0.8894     -1.0189      0.0535  C       1  LIG       0.0000
     7  C7         0.5851     -1.3308     -0.2956  C       1  LIG       0.0000
     8  C8         0.9978     -0.2184     -1.2937  C       1  LIG       0.0000
     9  N9        -0.4887     -0.1219     -1.0462  N       1  LIG       0.0000
    10  H10        1.7839      2.0316     -0.6882  H       1  LIG       0.0000
    11  H11        1.8467      2.4475      0.9788  H       1  LIG       0.0000
    12  H12        1.8224      0.7176      0.5108  H       1  LIG       0.0000
    13  H13       -2.8464      0.5091      0.0423  H       1  LIG       0.0000
    14  H14       -2.2521     -1.4110      1.9259  H       1  LIG       0.0000
    15  H15       -1.4575     -1.8148      0.5128  H       1  LIG       0.0000
    16  H16        0.7475     -1.6161      0.7277  H       1  LIG       0.0000
    17  H17        1.1489     -1.9219     -1.0323  H       1  LIG       0.0000
    18  H18        1.7805      0.4435     -0.9865  H       1  LIG       0.0000
    19  H19        1.1810     -0.3401     -2.3306  H       1  LIG       0.0000
@<TRIPOS>BOND
    1     6    15  1
    2     4    13  1
    3     4     6  1
    4     4     5  1
    5     3     4  1
    6     6     9  1
    7     6     7  1
    8     5    14  1
    9     7    16  1
   10     3     9  1
   11     8     9  1
   12     7    17  1
   13     7     8  1
   14     2     3  1
   15     1    11  1
   16     8    18  1
   17     8    19  1
   18     1     2  1
   19     1    12  1
   20     1    10  1
