@<TRIPOS>MOLECULE
generated_molecule
15 16 0 0 0
SMALL
NO_CHARGES

@<TRIPOS>ATOM
     1  O1         0.0889      2.0977      1.4270  O       1  LIG       0.0000
     2  C2        -0.2052      1.1602      0.4064  C       1  LIG       0.0000
     3  C3        -0.9969     -0.1236      0.1144  C       1  LIG       0.0000
     4  C4        -0.5112     -0.9507     -1.1005  C       1  LIG       0.0000
     5  C5         0.8477     -1.1346     -0.3902  C       1  LIG       0.0000
     6  C6         0.7515      0.0060      0.6629  C       1  LIG       0.0000
     7  O7        -0.2939     -0.8288      1.1165  O       1  LIG       0.0000
     8  H8         0.2850      2.9566      1.0993  H       1  LIG       0.0000
     9  H9        -0.5162      1.8323     -0.4116  H       1  LIG       0.0000
    10  H10       -2.0708     -0.0613      0.2440  H       1  LIG       0.0000
    11  H11       -1.1043     -1.8466     -1.3123  H       1  LIG       0.0000
    12  H12       -0.4649     -0.4292     -2.0518  H       1  LIG       0.0000
    13  H13        1.0880     -1.5126     -1.3941  H       1  LIG       0.0000
    14  H14        1.5116     -1.5682      0.3487  H       1  LIG       0.0000
    15  H15        1.5907      0.4029      1.2414  H       1  LIG       0.0000
@<TRIPOS>BOND
    1     6    15  1
    2     2     9  1
    3     1     8  1
    4     1     2  1
    5     2     6  1
    6     2     3  1
    7     6     7  1
    8     5     6  1
    9     3     7  1
   10     5    14  1
   11     5    13  1
   12     4     5  1
   13     3    10  1
   14     3     4  1
   15     4    12  1
   16     4    11  1
