@<TRIPOS>MOLECULE
generated_molecule
18 19 0 0 0
SMALL
NO_CHARGES

@<TRIPOS>ATOM
     1  C1         1.7205      1.3414      1.8445  C       1  LIG       0.0000
     2  N2         0.6613      0.6125      1.0883  N       1  LIG       0.0000
     3  C3         0.2130     -0.6758      1.1714  C       1  LIG       0.0000
     4  C4        -0.3635     -0.9541     -0.0587  C       1  LIG       0.0000
     5  C5        -0.8219     -2.0509     -1.0604  C       1  LIG       0.0000
     6  O6        -1.4413     -1.2402     -2.0250  O       1  LIG       0.0000
     7  C7        -1.2431      0.1587     -1.9206  C       1  LIG       0.0000
     8  C8        -0.5436      0.2881     -0.5854  C       1  LIG       0.0000
     9  C9        -0.0565      1.2684      0.1834  C       1  LIG       0.0000
    10  H10        2.4591      1.6040      1.0892  H       1  LIG       0.0000
    11  H11        1.4120      2.2343      2.3607  H       1  LIG       0.0000
    12  H12        2.0856      0.6916      2.6425  H       1  LIG       0.0000
    13  H13        0.3980     -1.3510      2.0458  H       1  LIG       0.0000
    14  H14       -1.0765     -2.8332     -0.3258  H       1  LIG       0.0000
    15  H15       -0.4546     -2.5651     -1.9086  H       1  LIG       0.0000
    16  H16       -2.2775      0.3993     -2.0791  H       1  LIG       0.0000
    17  H17       -0.5833      0.7213     -2.5944  H       1  LIG       0.0000
    18  H18       -0.0878      2.3508      0.1323  H       1  LIG       0.0000
@<TRIPOS>BOND
    1     3    13  1
    2     5    15  1
    3     5    14  1
    4     4     5  1
    5     5     6  1
    6     3     4  ar
    7     2     3  ar
    8     1    11  1
    9     4     8  ar
   10     6     7  1
   11     1     2  1
   12     2     9  ar
   13     1    10  1
   14     1    12  1
   15     8     9  ar
   16     7     8  1
   17     9    18  1
   18     7    16  1
   19     7    17  1
