@<TRIPOS>MOLECULE
generated_molecule
23 23 0 0 0
SMALL
NO_CHARGES

@<TRIPOS>ATOM
     1  C1         0.9829      0.6388      1.0878  C       1  LIG       0.0000
     2  C2         0.6615      0.2446     -0.3410  C       1  LIG       0.0000
     3  O3        -0.5155      0.9177     -0.8827  O       1  LIG       0.0000
     4  C4        -1.6385     -0.0134     -0.6358  C       1  LIG       0.0000
     5  C5        -0.5027      0.3003      0.3342  C       1  LIG       0.0000
     6  C6         0.0816     -0.0330      1.7330  C       1  LIG       0.0000
     7  O7        -0.6705      1.6710      0.2821  O       1  LIG       0.0000
     8  C8        -0.2690     -0.8043     -0.8001  C       1  LIG       0.0000
     9  C9         0.5684     -1.1845     -2.0537  C       1  LIG       0.0000
    10  H10        0.4017      0.1069      1.8354  H       1  LIG       0.0000
    11  H11        2.0328      0.4345      1.3003  H       1  LIG       0.0000
    12  H12        0.7908      1.7059      1.2101  H       1  LIG       0.0000
    13  H13        1.5082      0.1053     -1.0086  H       1  LIG       0.0000
    14  H14       -1.6630     -0.9022     -1.2402  H       1  LIG       0.0000
    15  H15       -2.5999      0.3942     -0.3657  H       1  LIG       0.0000
    16  H16       -0.3423     -0.9056      2.2391  H       1  LIG       0.0000
    17  H17        1.1496     -0.1993      1.6183  H       1  LIG       0.0000
    18  H18       -0.0957      0.7865      2.4250  H       1  LIG       0.0000
    19  H19       -1.0852      2.0806      0.9770  H       1  LIG       0.0000
    20  H20       -1.0977     -1.4903     -0.6104  H       1  LIG       0.0000
    21  H21        0.9624     -2.1994     -2.0387  H       1  LIG       0.0000
    22  H22        1.4208     -0.5301     -2.1379  H       1  LIG       0.0000
    23  H23       -0.0809     -1.1241     -2.9276  H       1  LIG       0.0000
@<TRIPOS>BOND
    1     4    15  1
    2     1    11  1
    3     3     4  1
    4     2     3  1
    5     4    14  1
    6     4     5  1
    7     1    10  1
    8     1     2  1
    9     1    12  1
   10     7    19  1
   11     2    13  1
   12     2     8  1
   13     5     7  1
   14     5     8  1
   15     5     6  1
   16     6    16  1
   17     8    20  1
   18     8     9  1
   19     6    18  1
   20     6    17  1
   21     9    21  1
   22     9    22  1
   23     9    23  1
