@<TRIPOS>MOLECULE
generated_molecule
17 16 0 0 0
SMALL
NO_CHARGES

@<TRIPOS>ATOM
     1  C1         0.2467     -0.0298      2.2988  C       1  LIG       0.0000
     2  N2        -0.8983     -0.6723      1.6954  N       1  LIG       0.0000
     3  C3        -0.6012     -0.8345      0.4816  C       1  LIG       0.0000
     4  O4        -1.2890     -1.4706     -0.3899  O       1  LIG       0.0000
     5  C5        -0.3339     -1.0521     -1.2146  C       1  LIG       0.0000
     6  C6        -0.4201      0.3608     -0.6276  C       1  LIG       0.0000
     7  C7         0.4034      1.2704     -1.5278  C       1  LIG       0.0000
     8  O8        -1.0460      0.6221      0.3568  O       1  LIG       0.0000
     9  H9         0.2278     -0.1220      3.3690  H       1  LIG       0.0000
    10  H10        0.3035      1.0409      2.0189  H       1  LIG       0.0000
    11  H11        1.2156     -0.4722      1.9754  H       1  LIG       0.0000
    12  H12        0.3751     -0.4194      0.0770  H       1  LIG       0.0000
    13  H13       -0.0283     -2.0865     -1.2029  H       1  LIG       0.0000
    14  H14        0.0741     -0.6108     -2.1152  H       1  LIG       0.0000
    15  H15        0.6162      2.1482     -0.9085  H       1  LIG       0.0000
    16  H16        1.3187      0.8295     -1.8665  H       1  LIG       0.0000
    17  H17       -0.1642      1.4982     -2.4199  H       1  LIG       0.0000
@<TRIPOS>BOND
    1     7    15  1
    2     5    13  1
    3     5    14  1
    4     7    16  1
    5     7    17  1
    6     6     7  1
    7     5     6  1
    8     4     5  1
    9     6     8  2
   10     3    12  1
   11     3     4  1
   12     2     3  1
   13     1    10  1
   14     1     2  1
   15     1     9  1
   16     1    11  1
