@<TRIPOS>MOLECULE
generated_molecule
18 18 0 0 0
SMALL
NO_CHARGES

@<TRIPOS>ATOM
     1  C1         1.6649      0.9079     -0.5755  C       1  LIG       0.0000
     2  C2         0.3404      0.1516     -0.8923  C       1  LIG       0.0000
     3  C3        -0.0177     -0.7257      0.3169  C       1  LIG       0.0000
     4  O4         0.6647     -0.6636     -0.6691  O       1  LIG       0.0000
     5  C5        -0.0903      0.3918     -0.2187  C       1  LIG       0.0000
     6  C6        -1.2675     -0.1072      0.7212  C       1  LIG       0.0000
     7  O7        -2.5776     -0.2257      0.2525  O       1  LIG       0.0000
     8  C8        -0.1843     -1.5753      1.5346  C       1  LIG       0.0000
     9  N9        -0.2972     -2.2612      2.4900  N       1  LIG       0.0000
    10  H10        1.9200      1.5252     -1.4462  H       1  LIG       0.0000
    11  H11        2.5075      0.2481     -0.3838  H       1  LIG       0.0000
    12  H12        1.5535      1.5376      0.3046  H       1  LIG       0.0000
    13  H13       -0.5209      0.8059     -1.0350  H       1  LIG       0.0000
    14  H14        0.5008     -0.4866     -1.7704  H       1  LIG       0.0000
    15  H15        0.7649      0.8485      0.2985  H       1  LIG       0.0000
    16  H16       -0.6844      0.8467     -1.0239  H       1  LIG       0.0000
    17  H17       -1.4042     -0.0835      1.8244  H       1  LIG       0.0000
    18  H18       -2.8727     -1.1345      0.2723  H       1  LIG       0.0000
@<TRIPOS>BOND
    1     8     9  3
    2     3     8  1
    3     6    17  1
    4     5    15  1
    5     5     6  1
    6     3     6  1
    7     6     7  1
    8     4     5  1
    9     5    16  1
   10     3     4  1
   11     2     3  1
   12     7    18  1
   13     1    11  1
   14     2    14  1
   15     1     2  1
   16     2    13  1
   17     1    10  1
   18     1    12  1
