@<TRIPOS>MOLECULE
generated_molecule
14 16 0 0 0
SMALL
NO_CHARGES

@<TRIPOS>ATOM
     1  N1        -0.7286     -3.0012      0.3792  N       1  LIG       0.0000
     2  C2        -0.5466     -1.8587      0.3709  C       1  LIG       0.0000
     3  C3        -0.3354     -0.4387      0.3236  C       1  LIG       0.0000
     4  C4        -0.6824      0.5523      1.3869  C       1  LIG       0.0000
     5  O5         0.7775      0.3253      1.4015  O       1  LIG       0.0000
     6  C6         1.1353     -0.1237      0.0730  C       1  LIG       0.0000
     7  C7         0.8037      0.3319     -1.3655  C       1  LIG       0.0000
     8  O8        -0.3174      1.1947     -1.2024  O       1  LIG       0.0000
     9  C9        -1.0508      0.9318     -0.0148  C       1  LIG       0.0000
    10  H10       -1.3693      0.7374      2.1851  H       1  LIG       0.0000
    11  H11        2.1281     -0.5317      0.1631  H       1  LIG       0.0000
    12  H12        0.6811     -0.5946     -1.9198  H       1  LIG       0.0000
    13  H13        1.4901      1.0009     -1.8613  H       1  LIG       0.0000
    14  H14       -1.9853      1.4740      0.0805  H       1  LIG       0.0000
@<TRIPOS>BOND
    1     7    13  1
    2     7     8  1
    3     8     9  1
    4     7    12  1
    5     6     7  1
    6     9    14  1
    7     3     9  1
    8     4     9  1
    9     3     6  1
   10     6    11  1
   11     5     6  1
   12     2     3  1
   13     3     4  1
   14     1     2  3
   15     4     5  1
   16     4    10  1
