@<TRIPOS>MOLECULE
generated_molecule
19 20 0 0 0
SMALL
NO_CHARGES

@<TRIPOS>ATOM
     1  C1         0.1486      0.9136      2.5459  C       1  LIG       0.0000
     2  C2        -0.8262      0.5001      1.4143  C       1  LIG       0.0000
     3  C3        -0.5548      0.7585     -0.0819  C       1  LIG       0.0000
     4  C4         0.1993     -0.2721     -1.0075  C       1  LIG       0.0000
     5  C5        -0.6961     -0.6592     -2.1775  C       1  LIG       0.0000
     6  C6         0.6251     -1.3724     -2.1034  C       1  LIG       0.0000
     7  O7         1.9563     -1.1994     -1.7922  O       1  LIG       0.0000
     8  C8         1.6214     -0.6699     -0.5991  C       1  LIG       0.0000
     9  O9         2.2511     -0.5349      0.4233  O       1  LIG       0.0000
    10  H10        0.9809      0.2120      2.6252  H       1  LIG       0.0000
    11  H11       -0.3940      0.9722      3.4965  H       1  LIG       0.0000
    12  H12        0.6186      1.8757      2.3822  H       1  LIG       0.0000
    13  H13       -0.8783     -0.5842      1.5508  H       1  LIG       0.0000
    14  H14       -1.7714      1.0196      1.5770  H       1  LIG       0.0000
    15  H15        0.0967      1.5856     -0.3204  H       1  LIG       0.0000
    16  H16       -1.5746      0.9089     -0.3834  H       1  LIG       0.0000
    17  H17       -1.4671     -1.4371     -2.1430  H       1  LIG       0.0000
    18  H18       -0.9357      0.2712     -2.7161  H       1  LIG       0.0000
    19  H19        0.6003     -2.2881     -2.6906  H       1  LIG       0.0000
@<TRIPOS>BOND
    1     8     9  2
    2     2    14  1
    3     1    11  1
    4     1    10  1
    5     1     2  1
    6     1    12  1
    7     2    13  1
    8     2     3  1
    9     7     8  1
   10     4     8  1
   11     3    15  1
   12     6     7  1
   13     3     4  1
   14     3    16  1
   15     4     5  1
   16     4     6  1
   17     5    18  1
   18     5     6  1
   19     5    17  1
   20     6    19  1
