@<TRIPOS>MOLECULE
generated_molecule
16 16 0 0 0
SMALL
NO_CHARGES

@<TRIPOS>ATOM
     1  O1         1.3647     -1.7598     -1.5865  O       1  LIG       0.0000
     2  C2         0.8626     -0.6838     -1.8151  C       1  LIG       0.0000
     3  C3         0.7864      0.5189     -0.9023  C       1  LIG       0.0000
     4  C4         1.2496      0.3540      0.6058  C       1  LIG       0.0000
     5  C5        -0.2265      0.1425      0.8700  C       1  LIG       0.0000
     6  N6        -0.8501      1.1951      1.3322  N       1  LIG       0.0000
     7  N7        -2.0679      0.6121      1.2477  N       1  LIG       0.0000
     8  N8        -2.1240     -0.6945      0.8683  N       1  LIG       0.0000
     9  C9        -0.8636     -1.0725      0.6193  C       1  LIG       0.0000
    10  H10        0.3941     -0.5056     -2.7877  H       1  LIG       0.0000
    11  H11        1.4746      1.3897     -1.0120  H       1  LIG       0.0000
    12  H12       -0.2511      0.6710     -1.1559  H       1  LIG       0.0000
    13  H13        1.7864     -0.4361      1.1410  H       1  LIG       0.0000
    14  H14        1.8802      1.1943      0.8112  H       1  LIG       0.0000
    15  H15       -2.8799      1.1490      1.4696  H       1  LIG       0.0000
    16  H16       -0.5354     -2.0743      0.2943  H       1  LIG       0.0000
@<TRIPOS>BOND
    1     9    16  1
    2     8     9  ar
    3     5     9  ar
    4     4    13  1
    5     7     8  ar
    6     4     5  1
    7     5     6  ar
    8     4    14  1
    9     3     4  1
   10     6     7  ar
   11     7    15  1
   12     3    12  1
   13     1     2  2
   14     2     3  1
   15     3    11  1
   16     2    10  1
