@<TRIPOS>MOLECULE
generated_molecule
21 22 0 0 0
SMALL
NO_CHARGES

@<TRIPOS>ATOM
     1  C1         0.8250      2.5202      1.3858  C       1  LIG       0.0000
     2  C2         0.3996      1.5155      0.2615  C       1  LIG       0.0000
     3  O3        -0.4244      0.2374     -0.0381  O       1  LIG       0.0000
     4  C4        -0.7588     -1.0778     -0.6113  C       1  LIG       0.0000
     5  C5        -0.3178     -2.0966     -1.7354  C       1  LIG       0.0000
     6  C6         0.6923     -1.5107     -0.8295  C       1  LIG       0.0000
     7  C7         0.1665     -0.4358      0.0312  C       1  LIG       0.0000
     8  C8        -1.2767     -0.5233      0.4607  C       1  LIG       0.0000
     9  C9         1.2832      0.3378      0.1736  C       1  LIG       0.0000
    10  H10       -0.0310      3.1568      1.6396  H       1  LIG       0.0000
    11  H11        1.6516      3.1487      1.0689  H       1  LIG       0.0000
    12  H12        1.1467      2.0549      2.3167  H       1  LIG       0.0000
    13  H13        0.1495      2.2802     -0.4275  H       1  LIG       0.0000
    14  H14       -1.7089     -1.4332     -0.3535  H       1  LIG       0.0000
    15  H15       -0.5146     -1.7636     -2.7529  H       1  LIG       0.0000
    16  H16       -0.3376     -3.1815     -1.6186  H       1  LIG       0.0000
    17  H17        1.6658     -1.9312     -0.9429  H       1  LIG       0.0000
    18  H18       -1.9270     -0.2267     -0.3678  H       1  LIG       0.0000
    19  H19       -1.4524      0.1229      1.3289  H       1  LIG       0.0000
    20  H20       -1.5877     -1.5248      0.7590  H       1  LIG       0.0000
    21  H21        2.3568      0.3310      0.2517  H       1  LIG       0.0000
@<TRIPOS>BOND
    1     4    14  1
    2     5    15  1
    3     3     4  1
    4     4     5  1
    5     4     6  1
    6     2     3  1
    7     5    16  1
    8     5     6  1
    9     1    11  1
   10     1    10  1
   11     1     2  1
   12     1    12  1
   13     2    13  1
   14     2     9  1
   15     6    17  1
   16     6     7  1
   17     7     9  2
   18     9    21  1
   19     7     8  1
   20     8    18  1
   21     8    20  1
   22     8    19  1
