@<TRIPOS>MOLECULE
generated_molecule
19 21 0 0 0
SMALL
NO_CHARGES

@<TRIPOS>ATOM
     1  C1         0.0620      1.2003     -0.9214  C       1  LIG       0.0000
     2  C2         0.2045      0.3737      0.3732  C       1  LIG       0.0000
     3  C3         0.8923     -0.8441      1.0640  C       1  LIG       0.0000
     4  C4         1.0008     -0.9464     -0.4109  C       1  LIG       0.0000
     5  C5        -0.3451     -0.1831     -0.2823  C       1  LIG       0.0000
     6  O6        -0.8488      0.2213     -1.5006  O       1  LIG       0.0000
     7  C7        -0.7277     -0.3380      1.2846  C       1  LIG       0.0000
     8  O8         0.4734      0.1494      1.6819  O       1  LIG       0.0000
     9  C9        -1.2759      0.7557      0.5040  C       1  LIG       0.0000
    10  H10       -0.9198      1.6902     -0.9876  H       1  LIG       0.0000
    11  H11        0.8300      1.9574     -0.9843  H       1  LIG       0.0000
    12  H12        0.2122      0.5700     -1.7839  H       1  LIG       0.0000
    13  H13        1.9405     -1.0942      1.2761  H       1  LIG       0.0000
    14  H14        0.2153     -1.1564      1.8381  H       1  LIG       0.0000
    15  H15        0.8178     -1.7684     -1.0732  H       1  LIG       0.0000
    16  H16        2.0073     -0.5610     -0.5640  H       1  LIG       0.0000
    17  H17       -1.0736     -0.5194     -2.0511  H       1  LIG       0.0000
    18  H18       -1.3781     -0.8935      1.9597  H       1  LIG       0.0000
    19  H19       -2.0871      1.3865      0.5776  H       1  LIG       0.0000
@<TRIPOS>BOND
    1     4    15  1
    2     3    13  1
    3     3     4  1
    4     3    14  1
    5     2     3  1
    6     4    16  1
    7     4     5  1
    8     1    11  1
    9     5     6  1
   10     6    17  1
   11     5     9  1
   12     5     7  1
   13     9    19  1
   14     2     9  1
   15     7     9  1
   16     1     2  1
   17     2     8  1
   18     1    10  1
   19     1    12  1
   20     7     8  1
   21     7    18  1
