@<TRIPOS>MOLECULE
generated_molecule
19 20 0 0 0
SMALL
NO_CHARGES

@<TRIPOS>ATOM
     1  C1         2.5975      0.9055     -0.2419  C       1  LIG       0.0000
     2  O2         1.6808      0.1152      0.3744  O       1  LIG       0.0000
     3  C3         0.4818     -0.7039      0.4279  C       1  LIG       0.0000
     4  C4        -0.4003     -0.0536      1.5073  C       1  LIG       0.0000
     5  C5        -1.8198      0.1306      0.9726  C       1  LIG       0.0000
     6  N6        -1.3610      0.1792     -0.3925  N       1  LIG       0.0000
     7  C7        -1.3328     -0.1197     -1.7998  C       1  LIG       0.0000
     8  C8        -0.4614     -0.9430     -0.8006  C       1  LIG       0.0000
     9  H9         2.5184      1.9202      0.1467  H       1  LIG       0.0000
    10  H10        3.5616      0.4881      0.0134  H       1  LIG       0.0000
    11  H11        2.4564      0.9271     -1.3285  H       1  LIG       0.0000
    12  H12        0.8992     -1.6916      0.5873  H       1  LIG       0.0000
    13  H13        0.3327     -0.5498      2.1379  H       1  LIG       0.0000
    14  H14       -0.8263      0.8331      1.9784  H       1  LIG       0.0000
    15  H15       -2.4228      1.0217      1.0423  H       1  LIG       0.0000
    16  H16       -2.4491     -0.6282      1.4007  H       1  LIG       0.0000
    17  H17       -2.2362     -0.5411     -2.2273  H       1  LIG       0.0000
    18  H18       -0.8158      0.5791     -2.4407  H       1  LIG       0.0000
    19  H19       -0.4030     -1.8689     -1.3576  H       1  LIG       0.0000
@<TRIPOS>BOND
    1     5    15  1
    2     8    19  1
    3     3    12  1
    4     5     6  1
    5     6     8  1
    6     6     7  1
    7     5    16  1
    8     4     5  1
    9     3     8  1
   10     7     8  1
   11     4    13  1
   12     3     4  1
   13     2     3  1
   14     4    14  1
   15     1    10  1
   16     7    17  1
   17     7    18  1
   18     1     2  1
   19     1     9  1
   20     1    11  1
