@<TRIPOS>MOLECULE
generated_molecule
18 19 0 0 0
SMALL
NO_CHARGES

@<TRIPOS>ATOM
     1  C1        -1.5321      0.8317     -0.9340  C       1  LIG       0.0000
     2  C2         0.0016      0.6123     -0.8086  C       1  LIG       0.0000
     3  N3        -0.3183      1.0461      0.6178  N       1  LIG       0.0000
     4  C4        -0.4522     -0.0217      1.5194  C       1  LIG       0.0000
     5  O5        -0.9364      0.1050      2.6390  O       1  LIG       0.0000
     6  C6         0.1263     -1.2597      0.8630  C       1  LIG       0.0000
     7  C7         1.5394     -1.0473      0.2840  C       1  LIG       0.0000
     8  O8         2.5304     -0.1398     -0.0998  O       1  LIG       0.0000
     9  C9         1.4005      0.0160     -0.8864  C       1  LIG       0.0000
    10  H10       -1.7681      1.2228     -1.9221  H       1  LIG       0.0000
    11  H11       -1.9447      1.5465     -0.2180  H       1  LIG       0.0000
    12  H12       -2.0396     -0.1198     -0.7620  H       1  LIG       0.0000
    13  H13        0.4303      0.6225     -1.7501  H       1  LIG       0.0000
    14  H14       -0.7629      1.8523      1.0396  H       1  LIG       0.0000
    15  H15        0.1657     -2.0349      1.6311  H       1  LIG       0.0000
    16  H16       -0.5315     -1.5465      0.0613  H       1  LIG       0.0000
    17  H17        2.2394     -1.8330      0.5876  H       1  LIG       0.0000
    18  H18        1.8522      0.1476     -1.8620  H       1  LIG       0.0000
@<TRIPOS>BOND
    1     4     5  2
    2     3    14  1
    3     3     4  1
    4     4     6  1
    5     2     3  1
    6     1    11  1
    7     6    16  1
    8     6    15  1
    9     6     7  1
   10     1    10  1
   11     1     2  1
   12     1    12  1
   13     2    13  1
   14     2     9  1
   15     7     9  1
   16     7     8  1
   17     7    17  1
   18     8     9  1
   19     9    18  1
