@<TRIPOS>MOLECULE
generated_molecule
27 26 0 0 0
SMALL
NO_CHARGES

@<TRIPOS>ATOM
     1  C1         1.3643      2.2507      0.0399  C       1  LIG       0.0000
     2  C2         0.2204      1.2475      0.2914  C       1  LIG       0.0000
     3  C3        -0.6434      0.5453     -0.7480  C       1  LIG       0.0000
     4  O4         0.0517     -0.4016     -1.3659  O       1  LIG       0.0000
     5  C5         0.1973     -1.7867     -1.5454  C       1  LIG       0.0000
     6  C6         0.1485     -1.9650     -0.0139  C       1  LIG       0.0000
     7  C7        -0.0189     -0.4988      0.5402  C       1  LIG       0.0000
     8  C8        -0.7692      0.2439     -0.5908  C       1  LIG       0.0000
     9  C9        -0.4387     -0.6677      2.0446  C       1  LIG       0.0000
    10  H10        2.1024      1.9162     -0.6866  H       1  LIG       0.0000
    11  H11        1.9328      2.4339      0.9617  H       1  LIG       0.0000
    12  H12        0.9505      3.1771     -0.3436  H       1  LIG       0.0000
    13  H13        0.7352      0.4385      0.8272  H       1  LIG       0.0000
    14  H14       -0.5250      1.8309      0.8263  H       1  LIG       0.0000
    15  H15       -0.8996      1.1849     -1.5671  H       1  LIG       0.0000
    16  H16       -1.5891      0.1501     -0.3083  H       1  LIG       0.0000
    17  H17       -0.5026     -1.8546     -2.3802  H       1  LIG       0.0000
    18  H18        1.0244     -2.4521     -1.8136  H       1  LIG       0.0000
    19  H19        0.3650     -2.9470     -0.5022  H       1  LIG       0.0000
    20  H20        0.0102     -2.1433      1.0399  H       1  LIG       0.0000
    21  H21        0.8247      0.1525      0.6622  H       1  LIG       0.0000
    22  H22       -1.3542     -0.4236     -1.2364  H       1  LIG       0.0000
    23  H23       -0.0504      0.7563     -1.2204  H       1  LIG       0.0000
    24  H24       -1.4889      0.9581     -0.1944  H       1  LIG       0.0000
    25  H25       -1.5120     -0.6679      2.2397  H       1  LIG       0.0000
    26  H26       -0.1664     -1.6397      2.4578  H       1  LIG       0.0000
    27  H27        0.0310      0.1622      2.5859  H       1  LIG       0.0000
@<TRIPOS>BOND
    1     8    23  1
    2     7    21  1
    3     9    26  1
    4     8    24  1
    5     7     8  1
    6     8    22  1
    7     7     9  1
    8     6     7  1
    9     9    25  1
   10     9    27  1
   11     5    17  1
   12     5    18  1
   13     5     6  1
   14     4     5  1
   15     6    20  1
   16     6    19  1
   17     3    15  1
   18     3     4  1
   19     3    16  1
   20     2     3  1
   21     1    11  1
   22     2    14  1
   23     1     2  1
   24     2    13  1
   25     1    10  1
   26     1    12  1
