@<TRIPOS>MOLECULE
generated_molecule
17 18 0 0 0
SMALL
NO_CHARGES

@<TRIPOS>ATOM
     1  C1        -2.5146      2.4044     -0.3882  C       1  LIG       0.0000
     2  C2        -1.6565      1.5924     -0.6665  C       1  LIG       0.0000
     3  C3        -0.5758      0.6033     -1.0585  C       1  LIG       0.0000
     4  C4        -0.8714     -0.2282      0.1077  C       1  LIG       0.0000
     5  O5        -0.0960      0.6037      0.9855  O       1  LIG       0.0000
     6  C6         0.9412     -0.1668      1.5048  C       1  LIG       0.0000
     7  C7         1.9498     -0.8448      0.5684  C       1  LIG       0.0000
     8  C8         1.3736     -1.3976     -0.4891  C       1  LIG       0.0000
     9  C9         0.0329     -0.8663     -0.9821  C       1  LIG       0.0000
    10  H10       -3.2785      3.1145     -0.1375  H       1  LIG       0.0000
    11  H11        0.0589      0.8862     -1.8730  H       1  LIG       0.0000
    12  H12       -1.7925     -0.7491      0.3270  H       1  LIG       0.0000
    13  H13        1.8606     -0.0721      2.0966  H       1  LIG       0.0000
    14  H14        0.0014     -0.2633      2.0109  H       1  LIG       0.0000
    15  H15        3.0232     -0.9011      0.7268  H       1  LIG       0.0000
    16  H16        1.9168     -2.2061     -0.9625  H       1  LIG       0.0000
    17  H17       -0.3731     -1.5091     -1.7702  H       1  LIG       0.0000
@<TRIPOS>BOND
    1     8    16  1
    2     9    17  1
    3     3    11  1
    4     3     9  1
    5     8     9  1
    6     4     9  1
    7     2     3  1
    8     3     4  1
    9     7     8  2
   10     1     2  3
   11     1    10  1
   12     7    15  1
   13     6     7  1
   14     4    12  1
   15     4     5  1
   16     5     6  1
   17     6    13  1
   18     6    14  1
