@<TRIPOS>MOLECULE
generated_molecule
18 21 0 0 0
SMALL
NO_CHARGES

@<TRIPOS>ATOM
     1  O1         1.7421      1.0808      1.0411  O       1  LIG       0.0000
     2  C2         0.6117      0.6639      0.4317  C       1  LIG       0.0000
     3  C3         1.1305     -0.7718      0.1209  C       1  LIG       0.0000
     4  C4        -0.0580     -1.6907     -0.2361  C       1  LIG       0.0000
     5  N5        -0.9124     -0.8653     -1.1560  N       1  LIG       0.0000
     6  C6        -1.3344     -0.1259      0.0272  C       1  LIG       0.0000
     7  C7        -0.7994      0.5708     -1.2975  C       1  LIG       0.0000
     8  C8        -0.4486      1.6370     -0.3351  C       1  LIG       0.0000
     9  C9        -0.8295      0.9819      0.9344  C       1  LIG       0.0000
    10  H10        2.4974      0.5793      0.6860  H       1  LIG       0.0000
    11  H11        1.5856     -1.3454      0.9267  H       1  LIG       0.0000
    12  H12        1.9071     -0.5528     -0.6101  H       1  LIG       0.0000
    13  H13        0.2517     -2.5678     -0.7651  H       1  LIG       0.0000
    14  H14       -0.6731     -1.9889      0.6109  H       1  LIG       0.0000
    15  H15       -2.0403     -0.6975      0.6209  H       1  LIG       0.0000
    16  H16       -0.7419      0.9217     -2.3224  H       1  LIG       0.0000
    17  H17       -0.7066      2.6866     -0.5021  H       1  LIG       0.0000
    18  H18       -1.1819      1.4842      1.8245  H       1  LIG       0.0000
@<TRIPOS>BOND
    1     4    13  1
    2     3    11  1
    3     3     4  1
    4     4    14  1
    5     4     5  1
    6     3    12  1
    7     2     3  1
    8     7    16  1
    9     5     7  1
   10     5     6  1
   11     1     2  1
   12     2     8  1
   13     2     9  1
   14     7     8  1
   15     6     7  1
   16     1    10  1
   17     8    17  1
   18     8     9  1
   19     6     9  1
   20     6    15  1
   21     9    18  1
