@<TRIPOS>MOLECULE
generated_molecule
17 17 0 0 0
SMALL
NO_CHARGES

@<TRIPOS>ATOM
     1  C1         1.1502      1.7073     -0.9712  C       1  LIG       0.0000
     2  O2         0.9586      0.3545     -0.9932  O       1  LIG       0.0000
     3  C3         0.3497     -0.7407     -0.3488  C       1  LIG       0.0000
     4  C4        -0.2114     -2.0622     -0.8948  C       1  LIG       0.0000
     5  C5         1.0749     -2.1051     -0.1396  C       1  LIG       0.0000
     6  C6        -0.5221      0.0404      0.5240  C       1  LIG       0.0000
     7  C7        -1.2345      0.7289      1.2143  C       1  LIG       0.0000
     8  C8        -2.1094      1.5671      2.0421  C       1  LIG       0.0000
     9  O9        -2.0546      1.6791      3.2396  O       1  LIG       0.0000
    10  H10        0.9258      2.1721      0.0027  H       1  LIG       0.0000
    11  H11        2.1990      1.8364     -1.2197  H       1  LIG       0.0000
    12  H12        0.5119      2.1740     -1.7115  H       1  LIG       0.0000
    13  H13       -1.2410     -1.8113     -0.7219  H       1  LIG       0.0000
    14  H14        0.0089     -2.8461     -1.6484  H       1  LIG       0.0000
    15  H15        1.1526     -2.3938      0.9069  H       1  LIG       0.0000
    16  H16        1.9073     -2.4286     -0.7752  H       1  LIG       0.0000
    17  H17       -2.8659      2.1281      1.4947  H       1  LIG       0.0000
@<TRIPOS>BOND
    1     8     9  2
    2     8    17  1
    3     7     8  1
    4     6     7  3
    5     3     6  1
    6     5    16  1
    7     4    13  1
    8     3     5  1
    9     3     4  1
   10     2     3  1
   11     4     5  1
   12     5    15  1
   13     4    14  1
   14     1    11  1
   15     1     2  1
   16     1    10  1
   17     1    12  1
