@<TRIPOS>MOLECULE
generated_molecule
20 20 0 0 0
SMALL
NO_CHARGES

@<TRIPOS>ATOM
     1  C1         2.1021      1.2611     -1.2222  C       1  LIG       0.0000
     2  C2         0.7094      0.6582     -0.8731  C       1  LIG       0.0000
     3  C3        -0.7467      1.1999     -0.7666  C       1  LIG       0.0000
     4  N4        -2.1844      1.4768     -0.5818  N       1  LIG       0.0000
     5  C5        -1.7037      0.4328      0.3216  C       1  LIG       0.0000
     6  C6        -1.1887     -0.9406      0.9417  C       1  LIG       0.0000
     7  O7        -0.1284     -1.4388      1.7866  O       1  LIG       0.0000
     8  C8         0.8080     -2.4717      1.8876  C       1  LIG       0.0000
     9  O9         0.6002     -3.6857      1.8083  O       1  LIG       0.0000
    10  H10        2.2502      1.4212     -2.2901  H       1  LIG       0.0000
    11  H11        2.2190      2.2341     -0.7605  H       1  LIG       0.0000
    12  H12        2.9054      0.6013     -0.8853  H       1  LIG       0.0000
    13  H13        1.0409      0.4199      0.1270  H       1  LIG       0.0000
    14  H14        0.4703     -0.0975     -1.6136  H       1  LIG       0.0000
    15  H15       -0.7013      2.0327     -1.4492  H       1  LIG       0.0000
    16  H16       -2.8667      0.9195     -1.1052  H       1  LIG       0.0000
    17  H17       -2.5113      0.6694      0.9839  H       1  LIG       0.0000
    18  H18       -1.9899     -1.1505      1.5779  H       1  LIG       0.0000
    19  H19       -0.8729     -1.4731      0.0673  H       1  LIG       0.0000
    20  H20        1.7882     -2.0691      2.0457  H       1  LIG       0.0000
@<TRIPOS>BOND
    1     5    17  1
    2     3    15  1
    3     4    16  1
    4     3     5  1
    5     4     5  1
    6     5     6  1
    7     3     4  1
    8     2     3  1
    9     6    19  1
   10     6     7  1
   11     7     8  1
   12     1    11  1
   13     6    18  1
   14     2    14  1
   15     8     9  2
   16     1     2  1
   17     2    13  1
   18     8    20  1
   19     1    10  1
   20     1    12  1
