@<TRIPOS>MOLECULE
generated_molecule
17 19 0 0 0
SMALL
NO_CHARGES

@<TRIPOS>ATOM
     1  O1         0.4422     -1.0166     -2.7638  O       1  LIG       0.0000
     2  C2        -0.2336     -0.7520     -1.8325  C       1  LIG       0.0000
     3  N3        -1.5686     -0.3428     -1.5485  N       1  LIG       0.0000
     4  C4        -1.7029     -0.8638     -0.1536  C       1  LIG       0.0000
     5  C5        -0.2075     -0.6416     -0.3572  C       1  LIG       0.0000
     6  C6         1.1180     -0.5768      0.3014  C       1  LIG       0.0000
     7  C7         1.7291      0.6602      1.0033  C       1  LIG       0.0000
     8  C8         0.4054      1.4445      1.2190  C       1  LIG       0.0000
     9  N9        -0.0847      0.0953      0.8332  N       1  LIG       0.0000
    10  H10       -2.1454     -0.0335     -2.2639  H       1  LIG       0.0000
    11  H11       -1.9375     -1.8995      0.0093  H       1  LIG       0.0000
    12  H12       -2.3069     -0.1813      0.4205  H       1  LIG       0.0000
    13  H13        1.6161     -1.4872      0.0138  H       1  LIG       0.0000
    14  H14        2.4565      0.9955      0.2745  H       1  LIG       0.0000
    15  H15        2.1275      0.5853      2.0189  H       1  LIG       0.0000
    16  H16        0.7403      2.4206      0.9801  H       1  LIG       0.0000
    17  H17       -0.4481      1.5937      1.8454  H       1  LIG       0.0000
@<TRIPOS>BOND
    1     8    16  1
    2     8    17  1
    3     4    11  1
    4     8     9  1
    5     7     8  1
    6     5     9  1
    7     6     9  1
    8     3    10  1
    9     3     4  1
   10     2     3  1
   11     1     2  2
   12     4     5  1
   13     4    12  1
   14     2     5  1
   15     5     6  1
   16     6     7  1
   17     6    13  1
   18     7    14  1
   19     7    15  1
