@<TRIPOS>MOLECULE
generated_molecule
16 17 0 0 0
SMALL
NO_CHARGES

@<TRIPOS>ATOM
     1  O1         2.5411      0.3032     -1.9118  O       1  LIG       0.0000
     2  C2         1.6678      0.5803     -1.1315  C       1  LIG       0.0000
     3  O3         0.5421      1.3804     -1.2282  O       1  LIG       0.0000
     4  C4         0.0828      1.2967      0.1161  C       1  LIG       0.0000
     5  C5        -1.3575      0.8368     -0.0086  C       1  LIG       0.0000
     6  C6        -1.5671     -0.4398     -0.3468  C       1  LIG       0.0000
     7  C7        -0.6693     -1.5023      0.2540  C       1  LIG       0.0000
     8  N8         0.4915     -0.8284      0.8905  N       1  LIG       0.0000
     9  C9         1.2595      0.2897      0.3020  C       1  LIG       0.0000
    10  H10        0.1661      2.1615      0.7697  H       1  LIG       0.0000
    11  H11       -2.1738      1.5326      0.1557  H       1  LIG       0.0000
    12  H12       -2.3774     -0.7033     -1.0112  H       1  LIG       0.0000
    13  H13       -0.0983     -2.2243     -0.3162  H       1  LIG       0.0000
    14  H14       -1.4313     -2.0646      0.8126  H       1  LIG       0.0000
    15  H15        0.6869     -1.0081      1.8724  H       1  LIG       0.0000
    16  H16        2.2370      0.3895      0.7812  H       1  LIG       0.0000
@<TRIPOS>BOND
    1     4    10  1
    2     9    16  1
    3     3     4  1
    4     4     9  1
    5     4     5  1
    6     2     3  1
    7     5    11  1
    8     2     9  1
    9     8     9  1
   10     1     2  2
   11     5     6  2
   12     7    13  1
   13     6     7  1
   14     6    12  1
   15     7     8  1
   16     8    15  1
   17     7    14  1
