@<TRIPOS>MOLECULE
generated_molecule
22 23 0 0 0
SMALL
NO_CHARGES

@<TRIPOS>ATOM
     1  C1         1.0486      0.5316     -2.2310  C       1  LIG       0.0000
     2  C2         0.3311     -0.2016     -0.9922  C       1  LIG       0.0000
     3  C3        -0.6777     -0.3686      0.2014  C       1  LIG       0.0000
     4  C4        -0.9235     -1.7312      0.7906  C       1  LIG       0.0000
     5  C5        -1.4408      0.5574      0.8470  C       1  LIG       0.0000
     6  C6        -0.5218      1.7088      0.9424  C       1  LIG       0.0000
     7  N7         0.5537      2.0657      0.1035  N       1  LIG       0.0000
     8  C8         0.3472      0.6061      0.2535  C       1  LIG       0.0000
     9  C9         0.7280     -0.7510      0.7826  C       1  LIG       0.0000
    10  H10        1.5861     -0.1999     -2.8387  H       1  LIG       0.0000
    11  H11        1.7653      1.3050     -1.9395  H       1  LIG       0.0000
    12  H12        0.3494      1.0631     -2.8855  H       1  LIG       0.0000
    13  H13        0.4393     -1.1958     -1.3778  H       1  LIG       0.0000
    14  H14       -1.3079     -2.4363      0.0670  H       1  LIG       0.0000
    15  H15       -1.6367     -1.6062      1.6211  H       1  LIG       0.0000
    16  H16       -0.0050     -2.1866      1.1205  H       1  LIG       0.0000
    17  H17       -2.4353      0.5860      1.2757  H       1  LIG       0.0000
    18  H18       -0.7554      2.5570      1.5907  H       1  LIG       0.0000
    19  H19        0.0900      2.9678     -0.0847  H       1  LIG       0.0000
    20  H20        0.1701     -0.9908      1.6860  H       1  LIG       0.0000
    21  H21        0.5096     -1.5172      0.0523  H       1  LIG       0.0000
    22  H22        1.7858     -0.7635      1.0150  H       1  LIG       0.0000
@<TRIPOS>BOND
    1     4    15  1
    2     4    16  1
    3     4    14  1
    4     3     4  1
    5     5    17  1
    6     3     5  2
    7     2     3  1
    8     1    11  1
    9     5     6  1
   10     2    13  1
   11     1     2  1
   12     2     8  1
   13     1    10  1
   14     1    12  1
   15     6    18  1
   16     6     8  1
   17     6     7  1
   18     7     8  1
   19     8     9  1
   20     7    19  1
   21     9    21  1
   22     9    20  1
   23     9    22  1
