@<TRIPOS>MOLECULE
generated_molecule
17 18 0 0 0
SMALL
NO_CHARGES

@<TRIPOS>ATOM
     1  O1         0.5175      0.2374      3.4521  O       1  LIG       0.0000
     2  C2         0.5883     -0.5370      2.2452  C       1  LIG       0.0000
     3  C3         0.4813      0.1402      0.8504  C       1  LIG       0.0000
     4  C4        -0.1656     -0.7113     -0.2498  C       1  LIG       0.0000
     5  C5        -0.6067      0.3905     -1.2735  C       1  LIG       0.0000
     6  C6        -0.7565     -0.1594     -2.6605  C       1  LIG       0.0000
     7  C7        -0.8749     -0.5930     -3.7781  C       1  LIG       0.0000
     8  C8         0.2394      1.2265     -0.2946  C       1  LIG       0.0000
     9  O9         1.2765      1.2450      0.6353  O       1  LIG       0.0000
    10  H10        0.5851      1.0658      3.7398  H       1  LIG       0.0000
    11  H11       -0.2676     -1.1727      2.3469  H       1  LIG       0.0000
    12  H12        1.5787     -0.9670      2.2169  H       1  LIG       0.0000
    13  H13       -1.0392     -1.2058      0.1889  H       1  LIG       0.0000
    14  H14        0.6045     -1.3917     -0.6371  H       1  LIG       0.0000
    15  H15       -1.3991      1.0821     -1.4796  H       1  LIG       0.0000
    16  H16       -1.0146     -0.9469     -4.7776  H       1  LIG       0.0000
    17  H17        0.2530      2.2973     -0.5247  H       1  LIG       0.0000
@<TRIPOS>BOND
    1     1    10  1
    2     8     9  1
    3     3     9  1
    4     2    11  1
    5     8    17  1
    6     1     2  1
    7     3     8  1
    8     5     8  1
    9     2     3  1
   10     2    12  1
   11     7    16  1
   12     3     4  1
   13     6     7  3
   14     5     6  1
   15     4     5  1
   16     5    15  1
   17     4    14  1
   18     4    13  1
