@<TRIPOS>MOLECULE
generated_molecule
20 19 0 0 0
SMALL
NO_CHARGES

@<TRIPOS>ATOM
     1  C1         0.7509      1.3062     -0.9813  C       1  LIG       0.0000
     2  C2         0.4375     -0.0562     -0.2710  C       1  LIG       0.0000
     3  C3         1.4698     -0.4022     -1.4049  C       1  LIG       0.0000
     4  C4         0.5075     -0.2605      1.2471  C       1  LIG       0.0000
     5  C5        -0.9164     -0.8476      0.0256  C       1  LIG       0.0000
     6  O6        -2.1837     -1.1920     -0.5999  O       1  LIG       0.0000
     7  C7        -1.4892      0.0356      1.1013  C       1  LIG       0.0000
     8  C8        -1.9360      0.7588      1.9627  C       1  LIG       0.0000
     9  H9         0.0794      2.0695     -0.5850  H       1  LIG       0.0000
    10  H10        0.6070      1.2029     -2.0483  H       1  LIG       0.0000
    11  H11        1.7648      1.6377     -0.8344  H       1  LIG       0.0000
    12  H12        1.3683     -1.4519     -1.6769  H       1  LIG       0.0000
    13  H13        1.2831      0.2075     -2.2814  H       1  LIG       0.0000
    14  H14        2.4863     -0.2352     -1.0873  H       1  LIG       0.0000
    15  H15        0.2931      0.6949      1.7430  H       1  LIG       0.0000
    16  H16       -0.2246     -1.0069      1.5728  H       1  LIG       0.0000
    17  H17        1.4742     -0.6386      1.5639  H       1  LIG       0.0000
    18  H18       -0.5062     -1.8462     -0.0221  H       1  LIG       0.0000
    19  H19       -2.9675     -1.3747     -0.1766  H       1  LIG       0.0000
    20  H20       -2.2983      1.3989      2.7525  H       1  LIG       0.0000
@<TRIPOS>BOND
    1     5    18  1
    2     8    20  1
    3     7     8  3
    4     5     7  1
    5     5     6  1
    6     6    19  1
    7     2     5  1
    8     4    15  1
    9     1    10  1
   10     1     9  1
   11     1     2  1
   12     1    11  1
   13     2     4  1
   14     4    16  1
   15     4    17  1
   16     2     3  1
   17     3    14  1
   18     3    13  1
   19     3    12  1
