@<TRIPOS>MOLECULE
generated_molecule
23 23 0 0 0
SMALL
NO_CHARGES

@<TRIPOS>ATOM
     1  C1         1.5186      3.0621      0.3775  C       1  LIG       0.0000
     2  C2         0.8205      1.7405      0.8112  C       1  LIG       0.0000
     3  C3         0.5933      0.4963     -0.0850  C       1  LIG       0.0000
     4  C4        -0.7688      0.6205     -0.8913  C       1  LIG       0.0000
     5  C5        -1.8237     -0.5048     -0.7755  C       1  LIG       0.0000
     6  C6        -1.6729     -1.8817     -0.8334  C       1  LIG       0.0000
     7  C7        -0.5931     -2.7917     -0.2076  C       1  LIG       0.0000
     8  C8         0.3474     -2.0832      0.8184  C       1  LIG       0.0000
     9  O9         0.7270     -0.7474      0.7135  O       1  LIG       0.0000
    10  H10        1.4279      3.8500      1.1365  H       1  LIG       0.0000
    11  H11        2.5832      2.9181      0.1974  H       1  LIG       0.0000
    12  H12        1.0774      3.4301     -0.5419  H       1  LIG       0.0000
    13  H13       -0.1843      2.0769      1.0467  H       1  LIG       0.0000
    14  H14        1.4085      1.3424      1.6492  H       1  LIG       0.0000
    15  H15        1.4035      0.3207     -0.7968  H       1  LIG       0.0000
    16  H16       -0.7863      0.5902     -1.9732  H       1  LIG       0.0000
    17  H17       -0.9633      1.6271     -0.5240  H       1  LIG       0.0000
    18  H18       -2.8038     -0.1019     -0.6076  H       1  LIG       0.0000
    19  H19       -2.4065     -2.4485     -1.3794  H       1  LIG       0.0000
    20  H20       -1.1798     -3.6187      0.2040  H       1  LIG       0.0000
    21  H21        0.1088     -3.2252     -0.9252  H       1  LIG       0.0000
    22  H22       -0.2303     -2.3122      1.6916  H       1  LIG       0.0000
    23  H23        1.3967     -2.3597      0.8952  H       1  LIG       0.0000
@<TRIPOS>BOND
    1     5    18  1
    2     4    16  1
    3     2    13  1
    4     3    15  1
    5     1    11  1
    6     4     5  1
    7     5     6  2
    8     3     4  1
    9     4    17  1
   10     6    19  1
   11     2     3  1
   12     3     9  1
   13     1     2  1
   14     2    14  1
   15     6     7  1
   16     1    10  1
   17     1    12  1
   18     8    22  1
   19     8     9  1
   20     7     8  1
   21     8    23  1
   22     7    20  1
   23     7    21  1
