@<TRIPOS>MOLECULE
generated_molecule
18 20 0 0 0
SMALL
NO_CHARGES

@<TRIPOS>ATOM
     1  C1         0.1003     -1.1799      1.3858  C       1  LIG       0.0000
     2  O2         0.0936     -0.9986     -0.0240  O       1  LIG       0.0000
     3  C3        -0.2418      0.3075     -0.4725  C       1  LIG       0.0000
     4  C4        -1.3538      1.1710     -1.1565  C       1  LIG       0.0000
     5  N5         0.1212      1.1193     -1.4746  N       1  LIG       0.0000
     6  C6         0.9387      0.5444     -0.0577  C       1  LIG       0.0000
     7  C7         0.8267     -0.8824      0.1246  C       1  LIG       0.0000
     8  C8        -0.3416     -1.1238     -0.4711  C       1  LIG       0.0000
     9  C9         0.4357      1.8199     -0.4563  C       1  LIG       0.0000
    10  H10        0.0413     -2.2385      1.4319  H       1  LIG       0.0000
    11  H11        1.0092     -0.7603      1.8464  H       1  LIG       0.0000
    12  H12       -0.7287     -0.6982      1.9392  H       1  LIG       0.0000
    13  H13       -1.9276      1.9025     -0.6274  H       1  LIG       0.0000
    14  H14       -1.9184      0.8042     -1.9812  H       1  LIG       0.0000
    15  H15        1.7003      0.9544      0.5997  H       1  LIG       0.0000
    16  H16        1.4340     -1.6435      0.6037  H       1  LIG       0.0000
    17  H17       -1.0098     -1.9014     -0.7692  H       1  LIG       0.0000
    18  H18        0.8207      2.8033     -0.4406  H       1  LIG       0.0000
@<TRIPOS>BOND
    1     7    16  1
    2     8    17  1
    3     7     8  2
    4     6     7  1
    5     3     8  1
    6     1    11  1
    7     6    15  1
    8     6     9  1
    9     5     6  1
   10     2     3  1
   11     1     2  1
   12     3     9  1
   13     3     4  1
   14     9    18  1
   15     5     9  1
   16     1    10  1
   17     1    12  1
   18     4     5  1
   19     4    14  1
   20     4    13  1
