@<TRIPOS>MOLECULE
generated_molecule
23 23 0 0 0
SMALL
NO_CHARGES

@<TRIPOS>ATOM
     1  C1         1.2945      0.3872     -1.7168  C       1  LIG       0.0000
     2  C2        -0.1736      0.2778     -1.2436  C       1  LIG       0.0000
     3  C3        -0.5642     -0.9069     -0.3087  C       1  LIG       0.0000
     4  C4        -0.3459     -0.4932      1.1725  C       1  LIG       0.0000
     5  C5         0.8377      0.0449      1.9993  C       1  LIG       0.0000
     6  C6         0.9305     -1.2409      2.8070  C       1  LIG       0.0000
     7  O7         0.1169     -2.1297      2.7047  O       1  LIG       0.0000
     8  C8        -1.1261      0.9601     -2.2398  C       1  LIG       0.0000
     9  C9        -1.3611      1.1280     -0.7585  C       1  LIG       0.0000
    10  H10        1.3934      0.1247     -2.7637  H       1  LIG       0.0000
    11  H11        1.6923      1.3889     -1.5923  H       1  LIG       0.0000
    12  H12        1.9166     -0.2869     -1.1415  H       1  LIG       0.0000
    13  H13        0.0461     -1.8018     -0.3701  H       1  LIG       0.0000
    14  H14       -1.5610     -1.1376     -0.7281  H       1  LIG       0.0000
    15  H15       -0.9674      0.3748      1.3975  H       1  LIG       0.0000
    16  H16       -0.5109     -1.5066      1.4809  H       1  LIG       0.0000
    17  H17        0.6995      0.9818      2.5572  H       1  LIG       0.0000
    18  H18        1.7523      0.3516      1.4860  H       1  LIG       0.0000
    19  H19        1.7992     -1.2902      3.4836  H       1  LIG       0.0000
    20  H20       -0.7615      1.8409     -2.7704  H       1  LIG       0.0000
    21  H21       -1.7667      0.2656     -2.7812  H       1  LIG       0.0000
    22  H22       -0.8853      1.6137      0.0958  H       1  LIG       0.0000
    23  H23       -2.4551      1.0538     -0.7696  H       1  LIG       0.0000
@<TRIPOS>BOND
    1     6    19  1
    2     6     7  2
    3     5     6  1
    4     4    16  1
    5     5    17  1
    6     4     5  1
    7     5    18  1
    8     4    15  1
    9     3     4  1
   10     8    20  1
   11     3    13  1
   12     8    21  1
   13     2     3  1
   14     3    14  1
   15     2     8  1
   16     8     9  1
   17     1    11  1
   18     1     2  1
   19     2     9  1
   20     1    10  1
   21     1    12  1
   22     9    23  1
   23     9    22  1
