@<TRIPOS>MOLECULE
generated_molecule
17 17 0 0 0
SMALL
NO_CHARGES

@<TRIPOS>ATOM
     1  C1         1.4872      1.2656     -0.2409  C       1  LIG       0.0000
     2  C2         0.2068      0.2935     -0.2488  C       1  LIG       0.0000
     3  C3        -0.5455      1.4394     -1.0135  C       1  LIG       0.0000
     4  C4         0.3294     -1.1329     -0.5145  C       1  LIG       0.0000
     5  C5        -0.4825     -0.9184      0.6914  C       1  LIG       0.0000
     6  O6        -1.0745     -0.8485      1.9768  O       1  LIG       0.0000
     7  C7        -1.1983     -2.0619      1.3072  C       1  LIG       0.0000
     8  N8        -1.7585     -2.9248      1.7651  N       1  LIG       0.0000
     9  H9         1.4060      2.1133     -0.8988  H       1  LIG       0.0000
    10  H10        1.6356      1.6516      0.7704  H       1  LIG       0.0000
    11  H11        2.3840      0.7459     -0.5633  H       1  LIG       0.0000
    12  H12       -1.5878      1.1555     -1.1551  H       1  LIG       0.0000
    13  H13       -0.5192      2.3698     -0.4590  H       1  LIG       0.0000
    14  H14       -0.1245      1.6373     -1.9854  H       1  LIG       0.0000
    15  H15        1.3978     -1.4369     -0.4012  H       1  LIG       0.0000
    16  H16       -0.3069     -1.5755     -1.3147  H       1  LIG       0.0000
    17  H17       -1.2491     -1.7729      2.2845  H       1  LIG       0.0000
@<TRIPOS>BOND
    1     3    12  1
    2     1    10  1
    3     4    15  1
    4     3    13  1
    5     3    14  1
    6     2     3  1
    7     4    16  1
    8     2     4  1
    9     4     5  1
   10     1     2  1
   11     2     5  1
   12     1     9  1
   13     1    11  1
   14     5     7  1
   15     5     6  1
   16     7     8  3
   17     6    17  1
