@<TRIPOS>MOLECULE
generated_molecule
19 21 0 0 0
SMALL
NO_CHARGES

@<TRIPOS>ATOM
     1  O1        -2.0380      1.2212      1.0286  O       1  LIG       0.0000
     2  C2        -0.9198      0.6928      0.4352  C       1  LIG       0.0000
     3  C3        -0.1572      1.4519     -0.5848  C       1  LIG       0.0000
     4  C4         0.2872     -0.0447     -0.3951  C       1  LIG       0.0000
     5  C5        -0.9063     -0.7509      0.3682  C       1  LIG       0.0000
     6  C6        -0.3993     -2.0556     -0.1214  C       1  LIG       0.0000
     7  C7         0.9178     -1.2475      0.1376  C       1  LIG       0.0000
     8  C8         0.5709      0.2173      0.1554  C       1  LIG       0.0000
     9  C9         1.3235      1.4382     -0.4182  C       1  LIG       0.0000
    10  H10       -1.9248      1.6481      1.8538  H       1  LIG       0.0000
    11  H11       -0.6955      2.3087     -0.9928  H       1  LIG       0.0000
    12  H12        0.5180      0.0803     -1.4741  H       1  LIG       0.0000
    13  H13        0.9107     -0.5689      0.3370  H       1  LIG       0.0000
    14  H14       -1.7985     -1.0403      0.9766  H       1  LIG       0.0000
    15  H15       -0.0244     -2.6047     -0.9769  H       1  LIG       0.0000
    16  H16       -1.2019     -2.5869      0.3980  H       1  LIG       0.0000
    17  H17        1.8891     -1.5958      0.2977  H       1  LIG       0.0000
    18  H18        1.5952      2.3482      0.1079  H       1  LIG       0.0000
    19  H19        2.0533      1.0884     -1.1326  H       1  LIG       0.0000
@<TRIPOS>BOND
    1     5    14  1
    2     4    13  1
    3     4     5  1
    4     5     6  1
    5     2     5  1
    6     6    16  1
    7     6    15  1
    8     4    12  1
    9     3     4  1
   10     6     7  1
   11     1     2  1
   12     1    10  1
   13     2     3  1
   14     2     8  1
   15     3    11  1
   16     3     9  1
   17     7     8  1
   18     7    17  1
   19     8     9  1
   20     9    19  1
   21     9    18  1
