@<TRIPOS>MOLECULE
generated_molecule
17 17 0 0 0
SMALL
NO_CHARGES

@<TRIPOS>ATOM
     1  N1        -1.7746      1.1019      0.0070  N       1  LIG       0.0000
     2  H2        -1.4644      1.9725      0.3618  H       1  LIG       0.0000
     3  H3         2.3447      1.0064      2.1865  H       1  LIG       0.0000
     4  H4        -2.5946      0.7888      0.4464  H       1  LIG       0.0000
     5  C5        -0.9370      0.1402     -0.7636  C       1  LIG       0.0000
     6  C6        -0.6508     -1.3611     -0.4953  C       1  LIG       0.0000
     7  C7         0.8865     -1.2989     -0.2484  C       1  LIG       0.0000
     8  C8         0.5856      0.1989     -0.4752  C       1  LIG       0.0000
     9  C9         0.9009      1.0800      0.7381  C       1  LIG       0.0000
    10  O10        0.4995      2.2423      0.8385  O       1  LIG       0.0000
    11  O11        1.7100      0.5198      1.7426  O       1  LIG       0.0000
    12  H12       -1.3897      0.2880     -1.7397  H       1  LIG       0.0000
    13  H13       -1.2021     -1.7168     -1.3649  H       1  LIG       0.0000
    14  H14       -0.8477     -1.9793      0.3962  H       1  LIG       0.0000
    15  H15        1.5718     -1.7685     -0.9460  H       1  LIG       0.0000
    16  H16        1.2511     -1.6378      0.7202  H       1  LIG       0.0000
    17  H17        1.1108      0.4235     -1.4042  H       1  LIG       0.0000
@<TRIPOS>BOND
    1     1     2  1
    2     1     4  1
    3     1     5  1
    4     3    11  1
    5     6    14  1
    6     5     6  1
    7     5    12  1
    8     5     8  1
    9     6    13  1
   10     9    11  1
   11     6     7  1
   12     8     9  1
   13     9    10  2
   14     7     8  1
   15     8    17  1
   16     7    16  1
   17     7    15  1
