@<TRIPOS>MOLECULE
generated_molecule
17 16 0 0 0
SMALL
NO_CHARGES

@<TRIPOS>ATOM
     1  C1         0.1304      3.2623      1.1980  C       1  LIG       0.0000
     2  C2         0.4645      1.8109      1.0052  C       1  LIG       0.0000
     3  C3         0.7281      0.6539      0.8503  C       1  LIG       0.0000
     4  C4         1.0572     -0.7691      0.6557  C       1  LIG       0.0000
     5  O5         1.8382     -1.3329      1.3957  O       1  LIG       0.0000
     6  C6         0.3727     -1.4920     -0.4958  C       1  LIG       0.0000
     7  C7        -1.1679     -1.2434     -0.3214  C       1  LIG       0.0000
     8  C8         0.0168     -1.9891     -1.8767  C       1  LIG       0.0000
     9  O9        -0.9261     -2.7112     -2.1745  O       1  LIG       0.0000
    10  H10        0.8915      3.9066      0.7645  H       1  LIG       0.0000
    11  H11       -0.7892      3.5797      0.7059  H       1  LIG       0.0000
    12  H12        0.0309      3.4195      2.2780  H       1  LIG       0.0000
    13  H13        1.3586     -1.9165     -0.4644  H       1  LIG       0.0000
    14  H14       -1.5809     -0.6258     -1.1216  H       1  LIG       0.0000
    15  H15       -1.3604     -0.7307      0.6298  H       1  LIG       0.0000
    16  H16       -1.7274     -2.1900     -0.3481  H       1  LIG       0.0000
    17  H17        0.6629     -1.6323     -2.6805  H       1  LIG       0.0000
@<TRIPOS>BOND
    1     8     9  2
    2     1    10  1
    3     8    17  1
    4     6     8  1
    5     1    11  1
    6     1     2  1
    7     1    12  1
    8     2     3  3
    9     3     4  1
   10     6    13  1
   11     4     6  1
   12     6     7  1
   13     4     5  2
   14     7    14  1
   15     7    16  1
   16     7    15  1
