@<TRIPOS>MOLECULE
generated_molecule
20 20 0 0 0
SMALL
NO_CHARGES

@<TRIPOS>ATOM
     1  C1         0.7958     -0.7092      1.1756  C       1  LIG       0.0000
     2  N2        -0.1193     -0.2641      0.1520  N       1  LIG       0.0000
     3  C3         1.1408     -0.4802     -0.4729  C       1  LIG       0.0000
     4  C4         1.1323      0.9666     -0.9703  C       1  LIG       0.0000
     5  C5        -0.0453      0.9334      0.0041  C       1  LIG       0.0000
     6  O6        -1.2108      1.4625     -0.5533  O       1  LIG       0.0000
     7  C7        -2.2581      0.5948     -0.4303  C       1  LIG       0.0000
     8  O8        -3.4211      0.8019     -0.6401  O       1  LIG       0.0000
     9  C9        -1.5762     -0.6896      0.0166  C       1  LIG       0.0000
    10  H10        0.3701     -1.5007      1.8060  H       1  LIG       0.0000
    11  H11        1.7314     -1.0789      0.7080  H       1  LIG       0.0000
    12  H12        1.0855      0.1121      1.8310  H       1  LIG       0.0000
    13  H13        2.0555     -0.6017      0.1260  H       1  LIG       0.0000
    14  H14        1.1060     -1.2667     -1.2200  H       1  LIG       0.0000
    15  H15        1.0504      2.0234     -1.0456  H       1  LIG       0.0000
    16  H16        1.8506      0.6829     -1.7340  H       1  LIG       0.0000
    17  H17       -0.6668      0.0996      0.3424  H       1  LIG       0.0000
    18  H18        0.6740      1.3963      0.6815  H       1  LIG       0.0000
    19  H19       -1.2275     -1.6357     -0.3807  H       1  LIG       0.0000
    20  H20       -2.4675     -0.8469      0.6040  H       1  LIG       0.0000
@<TRIPOS>BOND
    1     4    15  1
    2     3    13  1
    3     3    14  1
    4     3     4  1
    5     4    16  1
    6     4     5  1
    7     2     3  1
    8     5    17  1
    9     5    18  1
   10     5     6  1
   11     1     2  1
   12     2     9  1
   13     1    11  1
   14     9    20  1
   15     6     7  1
   16     1    10  1
   17     1    12  1
   18     7     9  1
   19     9    19  1
   20     7     8  2
