@<TRIPOS>MOLECULE
generated_molecule
16 15 0 0 0
SMALL
NO_CHARGES

@<TRIPOS>ATOM
     1  O1         2.1593      1.6351      1.8418  O       1  LIG       0.0000
     2  C2         2.0082      1.6849      0.4643  C       1  LIG       0.0000
     3  C3         0.8817      0.9103     -0.0156  C       1  LIG       0.0000
     4  C4        -0.0182      0.3170     -0.3841  C       1  LIG       0.0000
     5  C5        -1.1964     -0.4607     -0.8678  C       1  LIG       0.0000
     6  C6        -0.9401     -1.3185      0.4023  C       1  LIG       0.0000
     7  O7        -2.0031     -2.2147      0.5670  O       1  LIG       0.0000
     8  C8        -1.0430     -0.3110     -2.3263  C       1  LIG       0.0000
     9  N9        -0.8843     -0.2061     -3.4685  N       1  LIG       0.0000
    10  H10        2.3166      0.8093      2.2704  H       1  LIG       0.0000
    11  H11        1.8886      2.7132      0.2355  H       1  LIG       0.0000
    12  H12        2.8653      1.2204     -0.0477  H       1  LIG       0.0000
    13  H13       -2.2846     -0.5104     -0.8863  H       1  LIG       0.0000
    14  H14        0.0189     -1.8134      0.2994  H       1  LIG       0.0000
    15  H15       -0.9336     -0.6878      1.2957  H       1  LIG       0.0000
    16  H16       -2.8353     -1.7676      0.6197  H       1  LIG       0.0000
@<TRIPOS>BOND
    1     6    14  1
    2     5    13  1
    3     1    10  1
    4     1     2  1
    5     2    11  1
    6     6     7  1
    7     7    16  1
    8     5     6  1
    9     6    15  1
   10     4     5  1
   11     5     8  1
   12     3     4  3
   13     2     3  1
   14     2    12  1
   15     8     9  3
