@<TRIPOS>MOLECULE
generated_molecule
17 17 0 0 0
SMALL
NO_CHARGES

@<TRIPOS>ATOM
     1  O1         1.5916     -1.0071      2.1439  O       1  LIG       0.0000
     2  C2         0.9421     -0.5709      1.1974  C       1  LIG       0.0000
     3  N3         1.1002      0.5839      0.4460  N       1  LIG       0.0000
     4  C4         0.1442      1.3224     -0.4057  C       1  LIG       0.0000
     5  C5        -0.5880      2.2926      0.4140  C       1  LIG       0.0000
     6  N6        -1.1451      3.0242      1.0935  N       1  LIG       0.0000
     7  C7        -0.2532     -1.1889      0.6052  C       1  LIG       0.0000
     8  C8        -0.8564     -1.6632     -0.6879  C       1  LIG       0.0000
     9  C9        -0.1503     -0.2956     -0.6566  C       1  LIG       0.0000
    10  H10        2.0890      0.5502      0.4120  H       1  LIG       0.0000
    11  H11        0.0981      0.3957     -0.9904  H       1  LIG       0.0000
    12  H12        0.1048      2.1154     -1.1377  H       1  LIG       0.0000
    13  H13       -0.8096     -1.7700      1.3117  H       1  LIG       0.0000
    14  H14       -1.9331     -1.6177     -0.8078  H       1  LIG       0.0000
    15  H15       -0.3605     -2.5251     -1.1230  H       1  LIG       0.0000
    16  H16       -0.6510      0.0622     -1.5475  H       1  LIG       0.0000
    17  H17        0.6773      0.2919     -0.2671  H       1  LIG       0.0000
@<TRIPOS>BOND
    1     8    15  1
    2     8    14  1
    3     8     9  1
    4     7     8  1
    5     1     2  2
    6     5     6  3
    7     9    16  1
    8     7     9  1
    9     9    17  1
   10     2     7  1
   11     2     3  1
   12     4    12  1
   13     7    13  1
   14     4     5  1
   15     3     4  1
   16     4    11  1
   17     3    10  1
