@<TRIPOS>MOLECULE
generated_molecule
18 17 0 0 0
SMALL
NO_CHARGES

@<TRIPOS>ATOM
     1  C1         1.0393     -0.7476      0.2774  C       1  LIG       0.0000
     2  C2        -0.1305     -0.1366      1.0512  C       1  LIG       0.0000
     3  O3        -0.3820      1.0250      0.2895  O       1  LIG       0.0000
     4  C4        -1.3550      0.8797     -0.6648  C       1  LIG       0.0000
     5  O5        -2.3896      1.5005     -0.6131  O       1  LIG       0.0000
     6  C6        -0.8662     -0.0720     -1.7578  C       1  LIG       0.0000
     7  N7         0.4305      0.3710     -2.1661  N       1  LIG       0.0000
     8  C8         0.2245      0.0486      2.4705  C       1  LIG       0.0000
     9  C9         0.5352      0.2204      3.6249  C       1  LIG       0.0000
    10  H10        0.7411     -1.7291     -0.0981  H       1  LIG       0.0000
    11  H11        1.3285     -0.0632     -0.5238  H       1  LIG       0.0000
    12  H12        1.9143     -0.8813      0.8986  H       1  LIG       0.0000
    13  H13       -1.0602     -0.7262      1.1240  H       1  LIG       0.0000
    14  H14       -1.5511     -0.0637     -2.6127  H       1  LIG       0.0000
    15  H15       -0.8932     -1.0830     -1.3449  H       1  LIG       0.0000
    16  H16        0.4759      0.6002     -3.1450  H       1  LIG       0.0000
    17  H17        1.1574      0.5119     -1.4654  H       1  LIG       0.0000
    18  H18        0.7812      0.3453      4.6555  H       1  LIG       0.0000
@<TRIPOS>BOND
    1     9    18  1
    2     8     9  3
    3     2     8  1
    4     1    11  1
    5     1    10  1
    6     1     2  1
    7     1    12  1
    8     2     3  1
    9     2    13  1
   10     3     4  1
   11     6    14  1
   12     6    15  1
   13     4     6  1
   14     6     7  1
   15     4     5  2
   16     7    17  1
   17     7    16  1
