@<TRIPOS>MOLECULE
generated_molecule
11 10 0 0 0
SMALL
NO_CHARGES

@<TRIPOS>ATOM
     1  C1         0.1081     -1.0322      1.1569  C       1  LIG       0.0000
     2  C2         0.6811     -0.0813      0.0965  C       1  LIG       0.0000
     3  O3         1.8422      0.2900      0.1390  O       1  LIG       0.0000
     4  C4        -0.3074      0.3810     -0.9699  C       1  LIG       0.0000
     5  O5        -0.9478      1.6533     -0.9250  O       1  LIG       0.0000
     6  H6        -0.0556     -0.5147      2.0992  H       1  LIG       0.0000
     7  H7         0.7966     -1.8626      1.3140  H       1  LIG       0.0000
     8  H8        -0.8538     -1.4254      0.8417  H       1  LIG       0.0000
     9  H9        -1.0341     -0.4110     -0.9249  H       1  LIG       0.0000
    10  H10        0.2534      0.5377     -1.8942  H       1  LIG       0.0000
    11  H11       -0.4826      2.4651     -0.9334  H       1  LIG       0.0000
@<TRIPOS>BOND
    1     1     2  1
    2     1     6  1
    3     1     7  1
    4     1     8  1
    5     2     3  2
    6     2     4  1
    7     4     5  1
    8     4     9  1
    9     4    10  1
   10     5    11  1
