@<TRIPOS>MOLECULE
generated_molecule
19 21 0 0 0
SMALL
NO_CHARGES

@<TRIPOS>ATOM
     1  C1         2.0877      1.3123     -0.7644  C       1  LIG       0.0000
     2  C2         1.5627      0.2897      0.2613  C       1  LIG       0.0000
     3  O3         0.9998     -0.7322     -0.5729  O       1  LIG       0.0000
     4  C4        -0.3187     -0.7330     -0.1199  C       1  LIG       0.0000
     5  C5        -1.3753     -0.0228     -0.9034  C       1  LIG       0.0000
     6  C6        -1.2112      0.3992      0.5901  C       1  LIG       0.0000
     7  O7        -1.6292     -0.6416      1.4274  O       1  LIG       0.0000
     8  C8        -1.3994     -1.6408      0.4509  C       1  LIG       0.0000
     9  C9         0.2323     -0.0064      1.0530  C       1  LIG       0.0000
    10  H10        1.3721      1.4871     -1.5620  H       1  LIG       0.0000
    11  H11        2.2931      2.2669     -0.2793  H       1  LIG       0.0000
    12  H12        3.0060      0.9634     -1.2295  H       1  LIG       0.0000
    13  H13        2.3382      0.1920      1.0069  H       1  LIG       0.0000
    14  H14       -0.9686      0.4656     -1.7893  H       1  LIG       0.0000
    15  H15       -2.3554     -0.4033     -1.1517  H       1  LIG       0.0000
    16  H16       -1.6866      1.3578      0.7536  H       1  LIG       0.0000
    17  H17       -2.3447     -1.7647     -0.0650  H       1  LIG       0.0000
    18  H18       -0.9237     -2.5698      0.7664  H       1  LIG       0.0000
    19  H19        0.3209     -0.2194      2.1277  H       1  LIG       0.0000
@<TRIPOS>BOND
    1     1    11  1
    2     2     3  1
    3     3     4  1
    4     1    10  1
    5     1     2  1
    6     1    12  1
    7     2    13  1
    8     8    17  1
    9     2     9  1
   10     8    18  1
   11     4     8  1
   12     4     5  1
   13     4     9  1
   14     7     8  1
   15     5    15  1
   16     5    14  1
   17     5     6  1
   18     9    19  1
   19     6     9  1
   20     6     7  1
   21     6    16  1
