@<TRIPOS>MOLECULE
generated_molecule
14 16 0 0 0
SMALL
NO_CHARGES

@<TRIPOS>ATOM
     1  O1        -2.8888      0.5965      0.9117  O       1  LIG       0.0000
     2  C2        -1.7292      0.5967      0.9327  C       1  LIG       0.0000
     3  N3        -1.0438      0.6565      2.2238  N       1  LIG       0.0000
     4  N4         0.2638      0.7908      1.7842  N       1  LIG       0.0000
     5  C5         0.1947      0.3237      0.5828  C       1  LIG       0.0000
     6  C6         1.1153     -0.4922     -0.2449  C       1  LIG       0.0000
     7  C7         1.2589     -0.8274     -1.6830  C       1  LIG       0.0000
     8  C8         0.0505      0.0005     -1.3062  C       1  LIG       0.0000
     9  N9        -0.8764      0.5563     -0.2554  N       1  LIG       0.0000
    10  H10       -1.1003      0.7120      3.2306  H       1  LIG       0.0000
    11  H11        1.9380     -0.9561      0.2690  H       1  LIG       0.0000
    12  H12        0.8999     -1.6625     -2.2794  H       1  LIG       0.0000
    13  H13        2.2839     -0.5376     -1.9230  H       1  LIG       0.0000
    14  H14       -0.3665      0.2427     -2.2428  H       1  LIG       0.0000
@<TRIPOS>BOND
    1     3    10  1
    2     2     9  1
    3     5     9  1
    4     8     9  1
    5     2     3  1
    6     3     4  1
    7     1     2  2
    8     8    14  1
    9     4     5  1
   10     5     6  1
   11     6    11  1
   12     6     8  1
   13     7     8  1
   14     6     7  1
   15     7    12  1
   16     7    13  1
