@<TRIPOS>MOLECULE
generated_molecule
15 15 0 0 0
SMALL
NO_CHARGES

@<TRIPOS>ATOM
     1  C1         0.9820      0.1323     -2.2193  C       1  LIG       0.0000
     2  C2         0.4959      0.3377     -0.8777  C       1  LIG       0.0000
     3  N3         0.2979      1.5074     -0.3422  N       1  LIG       0.0000
     4  C4        -0.2846      1.0526      0.7665  C       1  LIG       0.0000
     5  O5        -0.7548      2.1004      1.5414  O       1  LIG       0.0000
     6  C6        -0.2839     -0.3795      0.8050  C       1  LIG       0.0000
     7  C7        -0.7676     -1.5634      1.6608  C       1  LIG       0.0000
     8  O8         0.3506     -0.8451     -0.2518  O       1  LIG       0.0000
     9  H9         1.8347      0.7615     -2.4308  H       1  LIG       0.0000
    10  H10        0.1639      0.4113     -2.8857  H       1  LIG       0.0000
    11  H11        1.2998     -0.8979     -2.3433  H       1  LIG       0.0000
    12  H12       -0.6536      2.9263      0.9492  H       1  LIG       0.0000
    13  H13       -1.6012     -1.2690      2.2994  H       1  LIG       0.0000
    14  H14       -0.0390     -1.9348      2.3655  H       1  LIG       0.0000
    15  H15       -1.0401     -2.3398      0.9629  H       1  LIG       0.0000
@<TRIPOS>BOND
    1     5    12  1
    2     4     5  1
    3     3     4  ar
    4     2     3  ar
    5     1    10  1
    6     4     6  ar
    7     1     2  1
    8     2     8  ar
    9     1     9  1
   10     1    11  1
   11     6     8  ar
   12     6     7  1
   13     7    15  1
   14     7    13  1
   15     7    14  1
