@<TRIPOS>MOLECULE
generated_molecule
22 22 0 0 0
SMALL
NO_CHARGES

@<TRIPOS>ATOM
     1  C1        -1.2607      1.9458      0.9552  C       1  LIG       0.0000
     2  C2        -1.2077      0.4196      0.6588  C       1  LIG       0.0000
     3  C3        -1.0465     -0.8533      1.4497  C       1  LIG       0.0000
     4  C4         0.2254     -0.2802      0.7528  C       1  LIG       0.0000
     5  C5         1.1825      0.6428     -0.0836  C       1  LIG       0.0000
     6  C6         0.9691     -0.4394     -1.1182  C       1  LIG       0.0000
     7  C7        -0.4401     -0.4779     -1.5742  C       1  LIG       0.0000
     8  N8         1.9335     -1.1503     -1.5305  N       1  LIG       0.0000
     9  O9         2.7264     -2.0282     -0.9328  O       1  LIG       0.0000
    10  H10       -0.9380      2.5341      0.0902  H       1  LIG       0.0000
    11  H11       -0.6164      2.2730      1.7769  H       1  LIG       0.0000
    12  H12       -2.2806      2.2498      1.2134  H       1  LIG       0.0000
    13  H13       -1.9675      0.0920     -0.0514  H       1  LIG       0.0000
    14  H14       -0.6286     -1.1614      2.3922  H       1  LIG       0.0000
    15  H15       -1.9686     -1.3769      1.1742  H       1  LIG       0.0000
    16  H16        0.9391     -1.0199      1.0627  H       1  LIG       0.0000
    17  H17        0.9100      1.6056      0.2707  H       1  LIG       0.0000
    18  H18        2.2313      0.8636     -0.3584  H       1  LIG       0.0000
    19  H19       -0.9001     -1.3838     -1.1850  H       1  LIG       0.0000
    20  H20       -0.4272     -0.4742     -2.6545  H       1  LIG       0.0000
    21  H21       -1.0388      0.3604     -1.2680  H       1  LIG       0.0000
    22  H22        3.6033     -2.3412     -1.0401  H       1  LIG       0.0000
@<TRIPOS>BOND
    1     1    11  1
    2     2    13  1
    3     3    14  1
    4     1     2  1
    5     1    12  1
    6     1    10  1
    7     2     3  1
    8     2     4  1
    9     3    15  1
   10     3     4  1
   11     4    16  1
   12     4     5  1
   13     5    17  1
   14     5    18  1
   15     5     6  1
   16     6     8  2
   17     6     7  1
   18     8     9  1
   19     7    19  1
   20     7    21  1
   21     7    20  1
   22     9    22  1
