@<TRIPOS>MOLECULE
generated_molecule
15 17 0 0 0
SMALL
NO_CHARGES

@<TRIPOS>ATOM
     1  O1         0.1174      2.8864      1.0994  O       1  LIG       0.0000
     2  C2         0.0921      1.7458      0.7364  C       1  LIG       0.0000
     3  O3        -0.7315      0.8491      1.3733  O       1  LIG       0.0000
     4  C4        -0.2489     -0.4295      1.0292  C       1  LIG       0.0000
     5  C5        -1.1438     -1.1606     -0.0069  C       1  LIG       0.0000
     6  C6        -0.1895     -0.7727     -1.1697  C       1  LIG       0.0000
     7  O7         0.7156      0.2571     -1.5976  O       1  LIG       0.0000
     8  C8         0.8991      1.1110     -0.4353  C       1  LIG       0.0000
     9  C9         0.8417     -0.3808     -0.0855  C       1  LIG       0.0000
    10  H10        0.0294     -0.8476      1.9901  H       1  LIG       0.0000
    11  H11       -2.1536     -0.7463      0.1077  H       1  LIG       0.0000
    12  H12       -1.2386     -2.2523     -0.0483  H       1  LIG       0.0000
    13  H13       -0.4568     -1.2432     -2.1121  H       1  LIG       0.0000
    14  H14        1.6313      1.8144     -0.8073  H       1  LIG       0.0000
    15  H15        1.8360     -0.8309     -0.0734  H       1  LIG       0.0000
@<TRIPOS>BOND
    1     9    15  1
    2     8    14  1
    3     1     2  2
    4     2     8  1
    5     2     3  1
    6     8     9  1
    7     7     8  1
    8     4     9  1
    9     6     9  1
   10     4    10  1
   11     3     4  1
   12     4     5  1
   13     6     7  1
   14     5     6  1
   15     6    13  1
   16     5    11  1
   17     5    12  1
