@<TRIPOS>MOLECULE
generated_molecule
17 16 0 0 0
SMALL
NO_CHARGES

@<TRIPOS>ATOM
     1  C1        -1.8187      0.1879     -1.6148  C       1  LIG       0.0000
     2  O2        -0.8639      0.6035     -0.6655  O       1  LIG       0.0000
     3  C3         0.5344      0.5357     -0.6914  C       1  LIG       0.0000
     4  C4         1.1771      0.0284      0.6027  C       1  LIG       0.0000
     5  O5         1.9051      0.2246     -0.6138  O       1  LIG       0.0000
     6  C6         0.5386     -0.7230      1.8565  C       1  LIG       0.0000
     7  C7        -0.7786     -0.0913      1.9425  C       1  LIG       0.0000
     8  N8        -1.8046      0.4624      1.9631  N       1  LIG       0.0000
     9  H9        -2.7367      0.1937     -1.0777  H       1  LIG       0.0000
    10  H10       -1.5812     -0.8182     -2.0229  H       1  LIG       0.0000
    11  H11       -1.8668      0.8622     -2.4863  H       1  LIG       0.0000
    12  H12        0.8341     -0.1418     -1.5188  H       1  LIG       0.0000
    13  H13        0.8643      1.5444     -0.8948  H       1  LIG       0.0000
    14  H14        1.6108      0.0691      1.5796  H       1  LIG       0.0000
    15  H15        2.4631     -0.3727     -0.9667  H       1  LIG       0.0000
    16  H16        1.5242     -1.0766      2.1359  H       1  LIG       0.0000
    17  H17       -0.0011     -1.4884      2.4725  H       1  LIG       0.0000
@<TRIPOS>BOND
    1     1    10  1
    2     5    15  1
    3     4     5  1
    4     1     2  1
    5     1     9  1
    6     1    11  1
    7     2     3  1
    8     4    14  1
    9     3     4  1
   10     4     6  1
   11     3    12  1
   12     3    13  1
   13     7     8  3
   14     6     7  1
   15     6    16  1
   16     6    17  1
