@<TRIPOS>MOLECULE
generated_molecule
20 22 0 0 0
SMALL
NO_CHARGES

@<TRIPOS>ATOM
     1  C1        -0.5729      1.0625      2.2398  C       1  LIG       0.0000
     2  C2        -0.0893      0.7641      0.7945  C       1  LIG       0.0000
     3  C3        -0.0972      0.1781     -0.5985  C       1  LIG       0.0000
     4  N4         1.0306     -0.9367     -0.4589  N       1  LIG       0.0000
     5  C5         0.1298     -1.9884     -0.8703  C       1  LIG       0.0000
     6  C6         0.6721     -0.4981     -0.9125  C       1  LIG       0.0000
     7  C7        -0.4511      0.5665     -1.1505  C       1  LIG       0.0000
     8  O8        -0.3041      1.6413     -0.2364  O       1  LIG       0.0000
     9  C9         1.0939     -0.1334      0.5702  C       1  LIG       0.0000
    10  H10        0.1703      0.7914      2.9858  H       1  LIG       0.0000
    11  H11       -0.7957      2.1196      2.3223  H       1  LIG       0.0000
    12  H12       -1.4704      0.5089      2.4902  H       1  LIG       0.0000
    13  H13        0.2052      1.1025     -1.0909  H       1  LIG       0.0000
    14  H14       -0.9546     -0.4340     -0.9411  H       1  LIG       0.0000
    15  H15       -0.8609     -2.1311     -1.1932  H       1  LIG       0.0000
    16  H16        0.6044     -2.9379     -0.7538  H       1  LIG       0.0000
    17  H17        1.5587     -0.7883     -1.4876  H       1  LIG       0.0000
    18  H18       -0.2819      1.1075     -2.0721  H       1  LIG       0.0000
    19  H19       -1.4362      0.1281     -1.0016  H       1  LIG       0.0000
    20  H20        1.8491     -0.1224      1.3646  H       1  LIG       0.0000
@<TRIPOS>BOND
    1     3    13  1
    2     3    14  1
    3     3     4  1
    4     2     3  1
    5     4     5  1
    6     4     9  1
    7     5    15  1
    8     1    11  1
    9     5    16  1
   10     5     6  1
   11     9    20  1
   12     2     9  1
   13     6     9  1
   14     1     2  1
   15     2     8  1
   16     1    10  1
   17     1    12  1
   18     6    17  1
   19     6     7  1
   20     7     8  1
   21     7    19  1
   22     7    18  1
