@<TRIPOS>MOLECULE
generated_molecule
15 15 0 0 0
SMALL
NO_CHARGES

@<TRIPOS>ATOM
     1  N1         1.4087      1.0578      0.6913  N       1  LIG       0.0000
     2  C2         1.1198     -0.0562      0.4591  C       1  LIG       0.0000
     3  N3         1.6353     -1.3980     -0.0139  N       1  LIG       0.0000
     4  N4         0.4853     -1.9573     -0.0535  N       1  LIG       0.0000
     5  C5         0.0114     -0.6661      0.2830  C       1  LIG       0.0000
     6  C6        -1.2320      0.1068      0.1623  C       1  LIG       0.0000
     7  C7        -0.8045      0.7178     -1.2490  C       1  LIG       0.0000
     8  O8        -0.1746      1.7495     -1.3586  O       1  LIG       0.0000
     9  N9         0.1869      0.4401      0.9505  N       1  LIG       0.0000
    10  H10        0.7948      1.0274      1.8102  H       1  LIG       0.0000
    11  H11        1.0747      1.4672     -0.4268  H       1  LIG       0.0000
    12  H12        0.2558     -2.9968     -0.3127  H       1  LIG       0.0000
    13  H13       -2.1792     -0.4589      0.1316  H       1  LIG       0.0000
    14  H14       -1.3325      0.7551      1.0443  H       1  LIG       0.0000
    15  H15       -1.2498      0.2116     -2.1178  H       1  LIG       0.0000
@<TRIPOS>BOND
    1     7     8  2
    2     7    15  1
    3     6     7  1
    4     4    12  1
    5     3     4  ar
    6     2     3  ar
    7     4     5  ar
    8     1     2  1
    9     1    11  1
   10     1    10  1
   11     2     9  ar
   12     5     6  1
   13     5     9  ar
   14     6    14  1
   15     6    13  1
