@<TRIPOS>MOLECULE
generated_molecule
17 17 0 0 0
SMALL
NO_CHARGES

@<TRIPOS>ATOM
     1  C1         0.1916      2.2111      1.9690  C       1  LIG       0.0000
     2  N2         0.8683      1.8449      0.7060  N       1  LIG       0.0000
     3  C3         0.4581      1.0746     -0.5157  C       1  LIG       0.0000
     4  C4         0.0993     -0.3851     -0.8158  C       1  LIG       0.0000
     5  N5         0.2281     -1.4691      0.0438  N       1  LIG       0.0000
     6  C6        -0.3048     -2.6811     -0.2294  C       1  LIG       0.0000
     7  C7        -1.0439     -2.8289     -1.4239  C       1  LIG       0.0000
     8  N8        -0.9534     -1.8251     -2.3496  N       1  LIG       0.0000
     9  N9        -0.3742     -0.6584     -2.1136  N       1  LIG       0.0000
    10  H10        0.6939      1.7801      2.8437  H       1  LIG       0.0000
    11  H11       -0.8511      1.8671      1.9699  H       1  LIG       0.0000
    12  H12        0.2107      3.2948      2.1249  H       1  LIG       0.0000
    13  H13        1.7464      2.2577      0.7997  H       1  LIG       0.0000
    14  H14        1.3479      1.2364     -1.1058  H       1  LIG       0.0000
    15  H15       -0.4769      1.5188     -0.7042  H       1  LIG       0.0000
    16  H16       -0.2090     -3.5336      0.4474  H       1  LIG       0.0000
    17  H17       -1.6309     -3.7042     -1.6464  H       1  LIG       0.0000
@<TRIPOS>BOND
    1     6    16  1
    2     1    10  1
    3     1    11  1
    4     5     6  ar
    5     6     7  ar
    6     7    17  1
    7     1    12  1
    8     1     2  1
    9     4     5  ar
   10     7     8  ar
   11     2    13  1
   12     2     3  1
   13     4     9  ar
   14     3     4  1
   15     8     9  ar
   16     3    15  1
   17     3    14  1
