@<TRIPOS>MOLECULE
generated_molecule
16 16 0 0 0
SMALL
NO_CHARGES

@<TRIPOS>ATOM
     1  O1         0.6515      1.5529      0.8820  O       1  LIG       0.0000
     2  C2         1.4319      0.4296      0.5515  C       1  LIG       0.0000
     3  C3         0.4517     -0.7637      0.3646  C       1  LIG       0.0000
     4  N4         0.1541     -1.7522     -0.7589  N       1  LIG       0.0000
     5  C5        -1.2219     -1.6169     -0.8235  C       1  LIG       0.0000
     6  O6        -2.1117     -2.2457     -1.3146  O       1  LIG       0.0000
     7  C7        -1.0076     -0.3279     -0.0471  C       1  LIG       0.0000
     8  C8        -0.6898      1.1064     -0.1950  C       1  LIG       0.0000
     9  C9        -0.4249      2.2874     -0.3034  C       1  LIG       0.0000
    10  H10       -0.2613      1.4285      1.0373  H       1  LIG       0.0000
    11  H11        2.1477      0.2194      1.3432  H       1  LIG       0.0000
    12  H12        2.0436      0.6336     -0.3224  H       1  LIG       0.0000
    13  H13        0.7478     -1.4362      1.1404  H       1  LIG       0.0000
    14  H14        0.3303     -2.3826     -1.4812  H       1  LIG       0.0000
    15  H15       -2.0362     -0.4598      0.3210  H       1  LIG       0.0000
    16  H16       -0.2051      3.3272     -0.3940  H       1  LIG       0.0000
@<TRIPOS>BOND
    1     5     6  2
    2     4    14  1
    3     4     5  1
    4     5     7  1
    5     3     4  1
    6     2    11  1
    7     1    10  1
    8     1     2  1
    9     2     3  1
   10     2    12  1
   11     3     7  1
   12     3    13  1
   13     7     8  1
   14     7    15  1
   15     8     9  3
   16     9    16  1
