@<TRIPOS>MOLECULE
generated_molecule
16 16 0 0 0
SMALL
NO_CHARGES

@<TRIPOS>ATOM
     1  O1         1.1055     -0.5669     -1.9132  O       1  LIG       0.0000
     2  C2         0.7152     -0.1907     -0.5929  C       1  LIG       0.0000
     3  C3        -0.6250      0.3041     -1.1209  C       1  LIG       0.0000
     4  C4        -1.2052      0.7569      0.3107  C       1  LIG       0.0000
     5  C5        -0.1685     -0.2224      0.5911  C       1  LIG       0.0000
     6  C6        -1.5985     -0.3381      1.0924  C       1  LIG       0.0000
     7  N7        -2.6545     -0.4234      1.4707  N       1  LIG       0.0000
     8  C8         1.8166     -0.1696      0.4264  C       1  LIG       0.0000
     9  C9         2.7135     -0.1432      1.2514  C       1  LIG       0.0000
    10  H10        0.5702     -1.1705     -2.4146  H       1  LIG       0.0000
    11  H11       -1.2639     -0.4688     -1.5585  H       1  LIG       0.0000
    12  H12       -0.4502      1.1299     -1.8269  H       1  LIG       0.0000
    13  H13       -2.0757      0.3434      0.8382  H       1  LIG       0.0000
    14  H14       -1.1334      1.8098      0.4620  H       1  LIG       0.0000
    15  H15        0.7997     -0.5496      0.9521  H       1  LIG       0.0000
    16  H16        3.4541     -0.1009      2.0323  H       1  LIG       0.0000
@<TRIPOS>BOND
    1     9    16  1
    2     8     9  3
    3     6     7  3
    4     2     8  1
    5     1    10  1
    6     5     6  1
    7     5    15  1
    8     2     5  1
    9     4     5  1
   10     1     2  1
   11     2     3  1
   12     3    11  1
   13     3     4  1
   14     3    12  1
   15     4    14  1
   16     4    13  1
