@<TRIPOS>MOLECULE
generated_molecule
21 20 0 0 0
SMALL
NO_CHARGES

@<TRIPOS>ATOM
     1  C1        -0.7675      2.7204     -1.1670  C       1  LIG       0.0000
     2  C2        -0.3530      1.8542     -0.0263  C       1  LIG       0.0000
     3  C3        -0.0242      1.1808      0.8634  C       1  LIG       0.0000
     4  C4         0.4329      0.3080      1.9692  C       1  LIG       0.0000
     5  C5         1.4263     -0.7187      1.3307  C       1  LIG       0.0000
     6  C6         1.3194     -1.2784     -0.1483  C       1  LIG       0.0000
     7  C7         0.0881     -1.4992     -1.1226  C       1  LIG       0.0000
     8  C8        -1.3841     -1.4490     -0.8779  C       1  LIG       0.0000
     9  C9        -2.6184     -1.4029     -0.6442  C       1  LIG       0.0000
    10  H10       -0.7775      2.1581     -2.0991  H       1  LIG       0.0000
    11  H11       -0.0682      3.5450     -1.2728  H       1  LIG       0.0000
    12  H12       -1.7690      3.1050     -0.9815  H       1  LIG       0.0000
    13  H13       -0.3480     -0.2504      2.4894  H       1  LIG       0.0000
    14  H14        0.7981      0.9966      2.7365  H       1  LIG       0.0000
    15  H15        2.2506     -0.0802      1.6903  H       1  LIG       0.0000
    16  H16        1.5039     -1.7389      1.7374  H       1  LIG       0.0000
    17  H17        1.7036     -2.3084     -0.0698  H       1  LIG       0.0000
    18  H18        1.9492     -0.5414     -0.6586  H       1  LIG       0.0000
    19  H19        0.1577     -0.7032     -1.8541  H       1  LIG       0.0000
    20  H20        0.1956     -2.5288     -1.4519  H       1  LIG       0.0000
    21  H21       -3.7155     -1.3685     -0.4429  H       1  LIG       0.0000
@<TRIPOS>BOND
    1     4    13  1
    2     6    17  1
    3     5    16  1
    4     7    20  1
    5     1    11  1
    6     9    21  1
    7     8     9  3
    8     3     4  1
    9     4     5  1
   10     4    14  1
   11     5     6  1
   12     6     7  1
   13     6    18  1
   14     7     8  1
   15     2     3  3
   16     5    15  1
   17     7    19  1
   18     1     2  1
   19     1    10  1
   20     1    12  1
