@<TRIPOS>MOLECULE
generated_molecule
20 21 0 0 0
SMALL
NO_CHARGES

@<TRIPOS>ATOM
     1  C1        -0.3112      2.6995      1.0488  C       1  LIG       0.0000
     2  C2        -0.7771      1.2821      0.8764  C       1  LIG       0.0000
     3  N3         0.1423      0.5640     -0.0864  N       1  LIG       0.0000
     4  C4         1.0168     -0.4888     -0.7392  C       1  LIG       0.0000
     5  C5        -0.4717     -0.3435     -1.0933  C       1  LIG       0.0000
     6  C6        -0.5029     -1.8037     -0.6633  C       1  LIG       0.0000
     7  O7        -1.6739     -1.1418     -0.3567  O       1  LIG       0.0000
     8  C8         1.0166     -2.0439     -0.5745  C       1  LIG       0.0000
     9  O9         2.0249     -2.3341      0.3828  O       1  LIG       0.0000
    10  H10       -1.0367      3.3823      0.6086  H       1  LIG       0.0000
    11  H11        0.6503      2.8572      0.5690  H       1  LIG       0.0000
    12  H12       -0.1887      2.9475      2.1029  H       1  LIG       0.0000
    13  H13       -0.7481      0.6573      1.7708  H       1  LIG       0.0000
    14  H14       -1.8057      1.3218      0.5268  H       1  LIG       0.0000
    15  H15        1.8635      0.0917     -1.0713  H       1  LIG       0.0000
    16  H16       -1.0684      0.1465     -1.8388  H       1  LIG       0.0000
    17  H17       -0.4958     -2.8917     -0.7722  H       1  LIG       0.0000
    18  H18       -1.4796     -0.2049     -0.2267  H       1  LIG       0.0000
    19  H19        1.2217     -2.9162     -1.1996  H       1  LIG       0.0000
    20  H20        2.6240     -1.7815      0.7359  H       1  LIG       0.0000
@<TRIPOS>BOND
    1     9    20  1
    2     8     9  1
    3     8    19  1
    4     4     8  1
    5     6     8  1
    6     4    15  1
    7     1    11  1
    8     3     4  1
    9     4     5  1
   10     7    18  1
   11     6     7  1
   12     6    17  1
   13     5     6  1
   14     1    10  1
   15     1    12  1
   16     1     2  1
   17     2    13  1
   18     3     5  1
   19     2     3  1
   20     5    16  1
   21     2    14  1
