@<TRIPOS>MOLECULE
generated_molecule
16 16 0 0 0
SMALL
NO_CHARGES

@<TRIPOS>ATOM
     1  N1         1.4968      1.0774     -3.2562  N       1  LIG       0.0000
     2  C2         1.7085      0.5132     -2.0581  C       1  LIG       0.0000
     3  O3         0.9055      0.3916     -0.9063  O       1  LIG       0.0000
     4  C4         0.9853     -0.2020      0.4351  C       1  LIG       0.0000
     5  C5        -0.1044     -0.9337      1.2700  C       1  LIG       0.0000
     6  O6         0.0962     -2.0884      1.4987  O       1  LIG       0.0000
     7  C7        -1.4633     -0.3524      1.8481  C       1  LIG       0.0000
     8  C8        -2.2628      0.3447      0.7015  C       1  LIG       0.0000
     9  O9        -2.8252      0.1334      1.9403  O       1  LIG       0.0000
    10  H10        2.0497      0.7612     -4.0397  H       1  LIG       0.0000
    11  H11        2.6826      0.0452     -2.0082  H       1  LIG       0.0000
    12  H12        1.1654      0.6015      1.1105  H       1  LIG       0.0000
    13  H13        1.7844     -0.9080      0.1996  H       1  LIG       0.0000
    14  H14       -1.5695     -0.4651      2.8992  H       1  LIG       0.0000
    15  H15       -2.1620      1.4074      0.4898  H       1  LIG       0.0000
    16  H16       -2.4873     -0.3259     -0.1242  H       1  LIG       0.0000
@<TRIPOS>BOND
    1     4    13  1
    2     4    12  1
    3     4     5  1
    4     3     4  1
    5     5     6  2
    6     5     7  1
    7     2     3  1
    8     2    11  1
    9     1     2  1
   10     7    14  1
   11     7     9  1
   12     7     8  1
   13     8     9  1
   14     1    10  1
   15     8    16  1
   16     8    15  1
