@<TRIPOS>MOLECULE
generated_molecule
16 17 0 0 0
SMALL
NO_CHARGES

@<TRIPOS>ATOM
     1  O1         0.2455      2.2122      0.5170  O       1  LIG       0.0000
     2  C2         1.0009      1.0208      0.3271  C       1  LIG       0.0000
     3  C3         1.3581      0.6271     -1.1174  C       1  LIG       0.0000
     4  N4         1.0445     -0.7855     -1.2344  N       1  LIG       0.0000
     5  C5        -0.0438     -1.1875     -0.4807  C       1  LIG       0.0000
     6  O6        -1.1267     -1.9040     -0.7294  O       1  LIG       0.0000
     7  C7        -2.0288     -1.3201      0.1320  C       1  LIG       0.0000
     8  O8        -1.1890     -0.4770      0.9237  O       1  LIG       0.0000
     9  C9         0.2446     -0.2733      0.7250  C       1  LIG       0.0000
    10  H10       -0.2101      2.3600      1.2977  H       1  LIG       0.0000
    11  H11        1.9036      1.1726      0.9091  H       1  LIG       0.0000
    12  H12        0.9751      0.6380     -2.1360  H       1  LIG       0.0000
    13  H13        2.2074      1.2828     -0.9959  H       1  LIG       0.0000
    14  H14       -2.6410     -1.0763      0.9711  H       1  LIG       0.0000
    15  H15       -2.6516     -1.7251     -0.6160  H       1  LIG       0.0000
    16  H16        0.9112     -0.5647      1.5072  H       1  LIG       0.0000
@<TRIPOS>BOND
    1     2    11  1
    2     9    16  1
    3     8     9  1
    4     7     8  1
    5     2     9  1
    6     5     9  1
    7     7    14  1
    8     1     2  1
    9     2     3  1
   10     1    10  1
   11     7    15  1
   12     6     7  1
   13     3    12  1
   14     3    13  1
   15     3     4  1
   16     5     6  1
   17     4     5  1
