@<TRIPOS>MOLECULE
generated_molecule
20 20 0 0 0
SMALL
NO_CHARGES

@<TRIPOS>ATOM
     1  C1         0.7215     -0.1661     -1.1292  C       1  LIG       0.0000
     2  O2         0.1858      0.9306     -0.6644  O       1  LIG       0.0000
     3  C3        -0.7695      1.3653      0.3250  C       1  LIG       0.0000
     4  C4        -0.7957     -0.0535      0.9114  C       1  LIG       0.0000
     5  C5        -0.0060     -1.3135      0.4848  C       1  LIG       0.0000
     6  N6         0.0486     -0.0421     -0.2941  N       1  LIG       0.0000
     7  C7         1.1233      0.4955     -1.0805  C       1  LIG       0.0000
     8  C8        -1.6126     -0.5462      2.0606  C       1  LIG       0.0000
     9  O9        -2.4044     -1.4504      1.9892  O       1  LIG       0.0000
    10  H10        1.6774      0.2545     -1.3500  H       1  LIG       0.0000
    11  H11        0.2327     -0.4926     -2.0305  H       1  LIG       0.0000
    12  H12        0.7459     -1.0087     -0.4220  H       1  LIG       0.0000
    13  H13       -0.2935      2.2207      0.7661  H       1  LIG       0.0000
    14  H14       -1.8184      1.5896      0.1868  H       1  LIG       0.0000
    15  H15        0.9820     -1.6298      0.1788  H       1  LIG       0.0000
    16  H16       -0.6767     -2.0303      0.8979  H       1  LIG       0.0000
    17  H17        1.8395      1.0619     -0.4933  H       1  LIG       0.0000
    18  H18        1.6020     -0.3393     -1.5724  H       1  LIG       0.0000
    19  H19        0.6971      1.1716     -1.7867  H       1  LIG       0.0000
    20  H20       -1.4790     -0.0172      3.0226  H       1  LIG       0.0000
@<TRIPOS>BOND
    1     8     9  2
    2     1    10  1
    3     1    12  1
    4     8    20  1
    5     4     8  1
    6     1    11  1
    7     1     2  1
    8     3    13  1
    9     3     4  1
   10     4     6  1
   11     4     5  1
   12     2     3  1
   13     3    14  1
   14     5     6  1
   15     6     7  1
   16     5    15  1
   17     5    16  1
   18     7    18  1
   19     7    19  1
   20     7    17  1
