@<TRIPOS>MOLECULE
generated_molecule
19 20 0 0 0
SMALL
NO_CHARGES

@<TRIPOS>ATOM
     1  C1        -1.6865     -1.1056     -1.3047  C       1  LIG       0.0000
     2  C2        -0.5305     -0.1211     -0.9286  C       1  LIG       0.0000
     3  C3         0.1379      1.0833     -1.1172  C       1  LIG       0.0000
     4  C4         1.0831      1.6316     -0.0721  C       1  LIG       0.0000
     5  O5         1.2018      2.7534      0.7877  O       1  LIG       0.0000
     6  C6         0.6378      0.3753      0.7101  C       1  LIG       0.0000
     7  C7         0.1908     -0.8697      1.5248  C       1  LIG       0.0000
     8  O8         0.6866      0.2865      2.0881  O       1  LIG       0.0000
     9  C9         0.0623     -0.9351      0.1375  C       1  LIG       0.0000
    10  H10       -1.3221     -1.9562     -1.8790  H       1  LIG       0.0000
    11  H11       -2.2100     -1.4570     -0.4265  H       1  LIG       0.0000
    12  H12       -2.4281     -0.6043     -1.9316  H       1  LIG       0.0000
    13  H13        0.0557      1.7710     -1.9641  H       1  LIG       0.0000
    14  H14        1.9880      1.9226     -0.5743  H       1  LIG       0.0000
    15  H15        2.0487      2.9257      1.1790  H       1  LIG       0.0000
    16  H16       -0.4521     -1.0405      2.4108  H       1  LIG       0.0000
    17  H17        0.4331     -1.7007      0.8384  H       1  LIG       0.0000
    18  H18        0.9855     -1.5223      0.0821  H       1  LIG       0.0000
    19  H19       -0.8822     -1.4368      0.4396  H       1  LIG       0.0000
@<TRIPOS>BOND
    1     3    13  1
    2     5    15  1
    3     4     5  1
    4     3     4  1
    5     2     3  2
    6     1    11  1
    7     4    14  1
    8     4     6  1
    9     1     2  1
   10     2     9  1
   11     1    10  1
   12     1    12  1
   13     6     8  1
   14     6     9  1
   15     6     7  1
   16     7     8  1
   17     7    17  1
   18     9    19  1
   19     9    18  1
   20     7    16  1
