@<TRIPOS>MOLECULE
generated_molecule
20 22 0 0 0
SMALL
NO_CHARGES

@<TRIPOS>ATOM
     1  C1        -1.1842      2.0300     -0.8692  C       1  LIG       0.0000
     2  O2        -1.3867      0.9463      0.0005  O       1  LIG       0.0000
     3  C3        -0.5248      0.3115      0.9617  C       1  LIG       0.0000
     4  C4         0.2392     -0.6522      1.9190  C       1  LIG       0.0000
     5  C5         1.6487     -1.2726      1.7046  C       1  LIG       0.0000
     6  N6         0.5619     -1.5791      0.7869  N       1  LIG       0.0000
     7  C7         0.0035     -0.5746     -0.0965  C       1  LIG       0.0000
     8  C8        -0.3529     -1.2344     -1.4265  C       1  LIG       0.0000
     9  C9         0.4654      0.0455     -1.4064  C       1  LIG       0.0000
    10  H10       -1.2972      1.6763     -1.8829  H       1  LIG       0.0000
    11  H11       -1.9395      2.7583     -0.6216  H       1  LIG       0.0000
    12  H12       -0.1704      2.4872     -0.7666  H       1  LIG       0.0000
    13  H13       -0.7277      0.9692      1.7690  H       1  LIG       0.0000
    14  H14       -0.0059     -0.7483      2.9671  H       1  LIG       0.0000
    15  H15        1.9339     -1.5755      2.7052  H       1  LIG       0.0000
    16  H16        2.4886     -1.1886      1.0062  H       1  LIG       0.0000
    17  H17        0.1942     -1.9666     -2.0330  H       1  LIG       0.0000
    18  H18       -1.4272     -1.3545     -1.3782  H       1  LIG       0.0000
    19  H19        1.5375     -0.0186     -1.5953  H       1  LIG       0.0000
    20  H20       -0.0565      0.9406     -1.7439  H       1  LIG       0.0000
@<TRIPOS>BOND
    1     9    20  1
    2     9    19  1
    3     7     9  1
    4     8     9  1
    5     3    13  1
    6     6     7  1
    7     7     8  1
    8     3     7  1
    9     4     6  1
   10     5     6  1
   11     8    17  1
   12     8    18  1
   13     3     4  1
   14     2     3  1
   15     4    14  1
   16     4     5  1
   17     1    11  1
   18     1     2  1
   19     5    15  1
   20     5    16  1
   21     1    10  1
   22     1    12  1
