@<TRIPOS>MOLECULE
generated_molecule
18 20 0 0 0
SMALL
NO_CHARGES

@<TRIPOS>ATOM
     1  O1         1.7168     -0.0089     -1.9571  O       1  LIG       0.0000
     2  C2         1.1275     -0.4233     -0.9950  C       1  LIG       0.0000
     3  C3         1.0127     -1.6786     -0.2063  C       1  LIG       0.0000
     4  N4         0.5642     -1.0654      1.0862  N       1  LIG       0.0000
     5  C5         0.1299     -0.1847      0.1625  C       1  LIG       0.0000
     6  C6        -0.0006      1.1327     -0.4409  C       1  LIG       0.0000
     7  C7        -1.4021      0.7005     -0.9972  C       1  LIG       0.0000
     8  C8        -1.1932      0.6905      0.4548  C       1  LIG       0.0000
     9  C9         0.0298      0.8145      1.1549  C       1  LIG       0.0000
    10  H10        1.7972     -2.1650      0.3840  H       1  LIG       0.0000
    11  H11        0.4538     -2.1953     -0.9910  H       1  LIG       0.0000
    12  H12        0.1082     -0.9570      1.9483  H       1  LIG       0.0000
    13  H13        0.7811      1.5391     -1.0881  H       1  LIG       0.0000
    14  H14       -1.5238      1.3407     -1.8623  H       1  LIG       0.0000
    15  H15       -2.1341     -0.1001     -1.1007  H       1  LIG       0.0000
    16  H16       -2.0317      0.9770      1.0518  H       1  LIG       0.0000
    17  H17       -0.0598      1.6158      1.9002  H       1  LIG       0.0000
    18  H18        0.6242     -0.0326      1.4960  H       1  LIG       0.0000
@<TRIPOS>BOND
    1     8    16  1
    2     7     8  1
    3     8     9  1
    4     5     8  1
    5     7    14  1
    6     7    15  1
    7     6     7  1
    8     3    10  1
    9     9    18  1
   10     1     2  2
   11     9    17  1
   12     6     9  1
   13     4    12  1
   14     2     5  1
   15     2     3  1
   16     4     5  1
   17     5     6  1
   18     3     4  1
   19     3    11  1
   20     6    13  1
