@<TRIPOS>MOLECULE
generated_molecule
21 23 0 0 0
SMALL
NO_CHARGES

@<TRIPOS>ATOM
     1  C1         1.7625     -0.2332      0.1613  C       1  LIG       0.0000
     2  C2         1.1137     -1.4361      0.9274  C       1  LIG       0.0000
     3  C3        -0.3455     -1.3479      0.4065  C       1  LIG       0.0000
     4  C4        -0.6265     -0.6409     -0.9838  C       1  LIG       0.0000
     5  C5        -0.4468      0.9205     -1.0360  C       1  LIG       0.0000
     6  C6        -0.9327      1.6374      0.0132  C       1  LIG       0.0000
     7  C7        -1.9244      0.7080      0.6743  C       1  LIG       0.0000
     8  C8        -0.5565      0.1760      0.2283  C       1  LIG       0.0000
     9  C9         0.6951      0.5036     -0.6860  C       1  LIG       0.0000
    10  H10        2.6045     -0.8385     -0.1904  H       1  LIG       0.0000
    11  H11        2.1182      0.7283      0.5584  H       1  LIG       0.0000
    12  H12        1.7513     -1.2686      1.7874  H       1  LIG       0.0000
    13  H13        0.9356     -2.5256      0.9627  H       1  LIG       0.0000
    14  H14       -1.0482     -2.0926      0.8133  H       1  LIG       0.0000
    15  H15       -0.8764     -1.4296     -1.7153  H       1  LIG       0.0000
    16  H16        0.0397      1.4343     -1.8750  H       1  LIG       0.0000
    17  H17       -0.8129      2.6453      0.3974  H       1  LIG       0.0000
    18  H18       -2.8482      1.0911      0.3450  H       1  LIG       0.0000
    19  H19       -2.1077      0.2022      1.5999  H       1  LIG       0.0000
    20  H20        1.3822      1.3344     -0.7542  H       1  LIG       0.0000
    21  H21        0.1229      0.4319     -1.6343  H       1  LIG       0.0000
@<TRIPOS>BOND
    1     1    11  1
    2     4    15  1
    3     1    10  1
    4     1     9  1
    5     1     2  1
    6     9    21  1
    7     2    12  1
    8     4     5  1
    9     4     8  1
   10     3     4  1
   11     8     9  1
   12     9    20  1
   13     2     3  1
   14     2    13  1
   15     5    16  1
   16     5     6  2
   17     3     8  1
   18     7     8  1
   19     3    14  1
   20     7    18  1
   21     6     7  1
   22     6    17  1
   23     7    19  1
