@<TRIPOS>MOLECULE
generated_molecule
25 26 0 0 0
SMALL
NO_CHARGES

@<TRIPOS>ATOM
     1  C1        -1.0954      0.9202      1.0189  C       1  LIG       0.0000
     2  C2        -1.1073     -0.5238      0.4281  C       1  LIG       0.0000
     3  C3         0.2034     -1.1465     -0.1722  C       1  LIG       0.0000
     4  C4         1.4388     -0.3745     -0.8626  C       1  LIG       0.0000
     5  C5         2.7974     -0.8182     -0.3030  C       1  LIG       0.0000
     6  C6         1.4468     -0.8723      0.3938  C       1  LIG       0.0000
     7  C7         0.1939      0.0406     -0.2343  C       1  LIG       0.0000
     8  C8        -0.9927      0.1758     -1.2224  C       1  LIG       0.0000
     9  C9        -0.6479      1.1011      0.5205  C       1  LIG       0.0000
    10  H10       -2.1165      1.3080      1.1086  H       1  LIG       0.0000
    11  H11       -0.6529      0.9791      2.0169  H       1  LIG       0.0000
    12  H12       -0.5106      1.5896      0.3931  H       1  LIG       0.0000
    13  H13       -1.4825     -1.0985      1.2824  H       1  LIG       0.0000
    14  H14       -1.7669     -0.6527     -0.4345  H       1  LIG       0.0000
    15  H15        0.2654     -2.1903     -0.4983  H       1  LIG       0.0000
    16  H16        1.6873      0.1381     -1.8004  H       1  LIG       0.0000
    17  H17        3.6389     -0.1377     -0.2903  H       1  LIG       0.0000
    18  H18        3.4197     -1.6945     -0.3849  H       1  LIG       0.0000
    19  H19        1.7185     -1.4558      1.3134  H       1  LIG       0.0000
    20  H20       -1.3573      1.1946     -1.2169  H       1  LIG       0.0000
    21  H21       -1.7925     -0.5037     -0.9489  H       1  LIG       0.0000
    22  H22       -0.7128     -0.0730     -2.2421  H       1  LIG       0.0000
    23  H23       -1.6665      1.0246      0.1679  H       1  LIG       0.0000
    24  H24       -0.2686      2.1044      0.3643  H       1  LIG       0.0000
    25  H25       -0.6398      0.9653      1.6026  H       1  LIG       0.0000
@<TRIPOS>BOND
    1     9    24  1
    2     9    25  1
    3     4    16  1
    4     5    17  1
    5     9    23  1
    6     7     9  1
    7     4     5  1
    8     4     7  1
    9     3     4  1
   10     5    18  1
   11     5     6  1
   12     8    21  1
   13     7     8  1
   14     6     7  1
   15     1    11  1
   16     8    22  1
   17     8    20  1
   18     3     6  1
   19     6    19  1
   20     2     3  1
   21     3    15  1
   22     2    13  1
   23     1     2  1
   24     1    10  1
   25     1    12  1
   26     2    14  1
