@<TRIPOS>MOLECULE
generated_molecule
17 19 0 0 0
SMALL
NO_CHARGES

@<TRIPOS>ATOM
     1  C1        -2.1056      0.4410      0.2463  C       1  LIG       0.0000
     2  N2        -0.9622      0.0111     -0.5789  N       1  LIG       0.0000
     3  C3        -0.2663     -1.1744     -1.0788  C       1  LIG       0.0000
     4  C4         1.1854     -0.8876     -0.5383  C       1  LIG       0.0000
     5  C5         0.4197      0.0468     -1.4961  C       1  LIG       0.0000
     6  C6         0.2971      0.6542     -0.0654  C       1  LIG       0.0000
     7  C7         1.4427     -0.0418      0.7143  C       1  LIG       0.0000
     8  C8         1.4501      0.4873      2.0958  C       1  LIG       0.0000
     9  N9         1.3992      0.9323      3.1616  N       1  LIG       0.0000
    10  H10       -2.2008      1.5018      0.0533  H       1  LIG       0.0000
    11  H11       -2.0301      0.3618      1.3372  H       1  LIG       0.0000
    12  H12       -2.9273     -0.1831     -0.0498  H       1  LIG       0.0000
    13  H13       -0.6740     -2.0621     -1.4927  H       1  LIG       0.0000
    14  H14        1.8996     -1.6383     -0.9022  H       1  LIG       0.0000
    15  H15        0.4094      0.2708     -2.5523  H       1  LIG       0.0000
    16  H16        0.2127      1.6868      0.2443  H       1  LIG       0.0000
    17  H17        2.4506     -0.4065      0.9018  H       1  LIG       0.0000
@<TRIPOS>BOND
    1     3    13  1
    2     4    14  1
    3     3     4  1
    4     3     5  1
    5     2     3  1
    6     4     5  1
    7     4     7  1
    8     1    11  1
    9     5    15  1
   10     5     6  1
   11     1    10  1
   12     1     2  1
   13     2     6  1
   14     1    12  1
   15     7    17  1
   16     6     7  1
   17     7     8  1
   18     6    16  1
   19     8     9  3
