@<TRIPOS>MOLECULE
generated_molecule
17 18 0 0 0
SMALL
NO_CHARGES

@<TRIPOS>ATOM
     1  O1         1.6669     -0.9749     -1.1978  O       1  LIG       0.0000
     2  C2         1.4488     -0.8240      0.1960  C       1  LIG       0.0000
     3  O3         2.3719     -0.6459      0.9898  O       1  LIG       0.0000
     4  C4        -0.0233     -0.9413      0.6900  C       1  LIG       0.0000
     5  N5        -1.3991     -0.4340      0.5159  N       1  LIG       0.0000
     6  H6        -1.8550     -0.2467      1.3931  H       1  LIG       0.0000
     7  H7         2.5177     -1.1102     -1.5456  H       1  LIG       0.0000
     8  C8        -1.8467      0.3732     -0.6260  C       1  LIG       0.0000
     9  C9        -0.4855      0.9650     -0.4777  C       1  LIG       0.0000
    10  N10        0.9747      0.7190     -0.5006  N       1  LIG       0.0000
    11  C11        0.3834      0.4140      0.7457  C       1  LIG       0.0000
    12  H12       -0.3404     -1.8309      1.2268  H       1  LIG       0.0000
    13  H13       -2.4713      1.2408     -0.8232  H       1  LIG       0.0000
    14  H14       -2.4050     -0.3347     -1.2403  H       1  LIG       0.0000
    15  H15       -0.8269      1.7994     -1.0243  H       1  LIG       0.0000
    16  H16        1.6652      1.3983     -0.1365  H       1  LIG       0.0000
    17  H17        0.6246      0.4329      1.8146  H       1  LIG       0.0000
@<TRIPOS>BOND
    1     5     6  1
    2     4    12  1
    3     4     5  1
    4     5     8  1
    5     2     3  2
    6     8    13  1
    7     2     4  1
    8     4    11  1
    9     1     2  1
   10     1     7  1
   11     8    14  1
   12     8     9  1
   13    11    17  1
   14     9    11  1
   15    10    11  1
   16     9    15  1
   17     9    10  1
   18    10    16  1
