@<TRIPOS>MOLECULE
generated_molecule
25 25 0 0 0
SMALL
NO_CHARGES

@<TRIPOS>ATOM
     1  C1        -0.8821      2.6913     -0.6842  C       1  LIG       0.0000
     2  C2         0.0076      1.6727     -1.4381  C       1  LIG       0.0000
     3  C3         0.3249      0.2964     -0.8000  C       1  LIG       0.0000
     4  C4         0.6947     -0.0130      0.4980  C       1  LIG       0.0000
     5  C5         2.1174     -0.2282      1.0296  C       1  LIG       0.0000
     6  C6        -0.5657     -0.1018      1.3438  C       1  LIG       0.0000
     7  C7        -1.2167     -1.4832      1.0463  C       1  LIG       0.0000
     8  C8        -0.5155     -2.1291     -0.1861  C       1  LIG       0.0000
     9  C9         0.3147     -1.2288     -1.1843  C       1  LIG       0.0000
    10  H10       -0.8675      3.6731     -1.1697  H       1  LIG       0.0000
    11  H11       -0.5778      2.8831      0.3449  H       1  LIG       0.0000
    12  H12       -1.9008      2.3071     -0.6371  H       1  LIG       0.0000
    13  H13       -0.5062      1.4484     -2.3702  H       1  LIG       0.0000
    14  H14        0.9773      2.1448     -1.6007  H       1  LIG       0.0000
    15  H15        2.8783      0.1376      0.3388  H       1  LIG       0.0000
    16  H16        2.2347      0.2915      1.9716  H       1  LIG       0.0000
    17  H17        2.3312     -1.2798      1.1937  H       1  LIG       0.0000
    18  H18       -0.2246     -0.0033      2.3792  H       1  LIG       0.0000
    19  H19       -1.2907      0.6851      1.0956  H       1  LIG       0.0000
    20  H20       -1.1787     -2.3284      1.7459  H       1  LIG       0.0000
    21  H21       -2.2610     -1.1277      1.0726  H       1  LIG       0.0000
    22  H22       -1.3191     -2.5991     -0.7715  H       1  LIG       0.0000
    23  H23        0.1969     -2.8671      0.1969  H       1  LIG       0.0000
    24  H24        1.3905     -1.4392     -1.2621  H       1  LIG       0.0000
    25  H25       -0.1618     -1.4024     -2.1528  H       1  LIG       0.0000
@<TRIPOS>BOND
    1     5    16  1
    2     5    15  1
    3     5    17  1
    4     4     5  1
    5     6    19  1
    6     6    18  1
    7     4     6  1
    8     6     7  1
    9     3     4  2
   10     1    11  1
   11     2    13  1
   12     2     3  1
   13     3     9  1
   14     7    20  1
   15     7    21  1
   16     7     8  1
   17     1     2  1
   18     2    14  1
   19     1    10  1
   20     1    12  1
   21     8    22  1
   22     8     9  1
   23     8    23  1
   24     9    24  1
   25     9    25  1
