@<TRIPOS>MOLECULE
generated_molecule
18 17 0 0 0
SMALL
NO_CHARGES

@<TRIPOS>ATOM
     1  C1         1.1771      0.2203      1.8169  C       1  LIG       0.0000
     2  C2         0.8242     -0.5812      0.5195  C       1  LIG       0.0000
     3  C3        -0.1778     -0.1366     -0.6261  C       1  LIG       0.0000
     4  C4        -0.4234      1.4099     -0.8855  C       1  LIG       0.0000
     5  C5        -1.4953     -0.8258     -0.2044  C       1  LIG       0.0000
     6  C6         0.3080     -0.6366     -1.9439  C       1  LIG       0.0000
     7  N7         0.6991     -1.0120     -2.9306  N       1  LIG       0.0000
     8  H8         2.2233      0.1641      2.1291  H       1  LIG       0.0000
     9  H9         0.5486     -0.1526      2.6417  H       1  LIG       0.0000
    10  H10        1.0435      1.2856      1.6975  H       1  LIG       0.0000
    11  H11        1.8252     -0.6430      0.0969  H       1  LIG       0.0000
    12  H12        0.3455     -1.5227      0.8000  H       1  LIG       0.0000
    13  H13       -0.4397      1.9512      0.0671  H       1  LIG       0.0000
    14  H14        0.3559      1.8398     -1.5119  H       1  LIG       0.0000
    15  H15       -1.3664      1.6285     -1.3861  H       1  LIG       0.0000
    16  H16       -1.5595     -0.8120      0.8856  H       1  LIG       0.0000
    17  H17       -2.3984     -0.3414     -0.5631  H       1  LIG       0.0000
    18  H18       -1.4902     -1.8353     -0.6026  H       1  LIG       0.0000
@<TRIPOS>BOND
    1     5    16  1
    2     5    17  1
    3     5    18  1
    4     3     5  1
    5     2    11  1
    6     1     9  1
    7     6     7  3
    8     1     8  1
    9     1     2  1
   10     2     3  1
   11     2    12  1
   12     3     6  1
   13     1    10  1
   14     3     4  1
   15     4    13  1
   16     4    14  1
   17     4    15  1
