@<TRIPOS>MOLECULE
generated_molecule
18 19 0 0 0
SMALL
NO_CHARGES

@<TRIPOS>ATOM
     1  C1         0.0787      1.4081      1.9498  C       1  LIG       0.0000
     2  O2        -0.1396      1.5969      0.5624  O       1  LIG       0.0000
     3  C3         0.6866      0.8763     -0.3096  C       1  LIG       0.0000
     4  C4         0.2952      0.3580     -1.6922  C       1  LIG       0.0000
     5  C5         0.1002     -0.4838     -0.3930  C       1  LIG       0.0000
     6  C6        -0.0538     -1.4250      0.7987  C       1  LIG       0.0000
     7  O7        -0.2546     -2.4158     -0.1629  O       1  LIG       0.0000
     8  C8        -0.6330     -1.5083     -1.0879  C       1  LIG       0.0000
     9  N9        -1.3471     -1.2590     -2.1647  N       1  LIG       0.0000
    10  H10       -0.4494      0.4768      2.1853  H       1  LIG       0.0000
    11  H11        1.1785      1.4059      2.1263  H       1  LIG       0.0000
    12  H12       -0.2901      2.1741      2.5962  H       1  LIG       0.0000
    13  H13        1.7507      1.0624     -0.2809  H       1  LIG       0.0000
    14  H14        1.1529      0.6443     -2.2963  H       1  LIG       0.0000
    15  H15       -0.6333      0.2126     -2.2457  H       1  LIG       0.0000
    16  H16       -0.9045     -1.2703      1.4424  H       1  LIG       0.0000
    17  H17        0.8274     -1.5793      1.3935  H       1  LIG       0.0000
    18  H18       -1.3649     -0.2739     -2.4215  H       1  LIG       0.0000
@<TRIPOS>BOND
    1     9    18  1
    2     8     9  1
    3     7     8  1
    4     5     8  1
    5     6     7  1
    6     3    13  1
    7     5     6  1
    8     3     5  1
    9     4     5  1
   10     4    14  1
   11     6    17  1
   12     6    16  1
   13     3     4  1
   14     2     3  1
   15     4    15  1
   16     1    10  1
   17     1    11  1
   18     1     2  1
   19     1    12  1
