@<TRIPOS>MOLECULE
generated_molecule
18 20 0 0 0
SMALL
NO_CHARGES

@<TRIPOS>ATOM
     1  C1         0.7885      1.1196     -0.8614  C       1  LIG       0.0000
     2  C2        -0.5655      1.7555     -0.4308  C       1  LIG       0.0000
     3  C3        -0.4312      0.3880      0.1071  C       1  LIG       0.0000
     4  C4        -1.5691     -0.2880      0.7961  C       1  LIG       0.0000
     5  C5        -0.2580     -1.0483      0.8170  C       1  LIG       0.0000
     6  C6         0.8902     -1.5775     -0.0057  C       1  LIG       0.0000
     7  O7         0.8993     -0.1255     -0.2160  O       1  LIG       0.0000
     8  C8         0.8434     -0.2720     -0.0928  C       1  LIG       0.0000
     9  H9         1.1235      0.6381     -1.7605  H       1  LIG       0.0000
    10  H10        1.2307      2.1202     -0.6879  H       1  LIG       0.0000
    11  H11       -0.9619      2.3235      0.4057  H       1  LIG       0.0000
    12  H12       -0.9975      2.1967     -1.3089  H       1  LIG       0.0000
    13  H13       -2.4214      0.1429      0.3012  H       1  LIG       0.0000
    14  H14       -2.0382     -0.6498      1.6799  H       1  LIG       0.0000
    15  H15       -0.6206     -1.6402      1.6593  H       1  LIG       0.0000
    16  H16        1.6840     -2.0050      0.6068  H       1  LIG       0.0000
    17  H17        0.7117     -2.1026     -0.9404  H       1  LIG       0.0000
    18  H18        1.6921     -0.9756     -0.0688  H       1  LIG       0.0000
@<TRIPOS>BOND
    1     1    10  1
    2     8    18  1
    3     2    11  1
    4     1     8  1
    5     1     2  1
    6     1     9  1
    7     3     8  1
    8     5     8  1
    9     2    12  1
   10     2     3  1
   11     4    13  1
   12     3     4  1
   13     3     7  1
   14     5    15  1
   15     4     5  1
   16     5     6  1
   17     4    14  1
   18     6     7  1
   19     6    16  1
   20     6    17  1
