@<TRIPOS>MOLECULE
generated_molecule
21 22 0 0 0
SMALL
NO_CHARGES

@<TRIPOS>ATOM
     1  C1         0.4152      0.6037     -2.6131  C       1  LIG       0.0000
     2  C2         0.0667      0.1258     -1.1855  C       1  LIG       0.0000
     3  C3         1.2117     -0.7850     -0.6355  C       1  LIG       0.0000
     4  C4         1.7595     -0.5099      0.5862  C       1  LIG       0.0000
     5  C5         0.7846      0.4193      1.2085  C       1  LIG       0.0000
     6  C6        -0.4398     -0.3847      0.6574  C       1  LIG       0.0000
     7  C7        -1.7862     -0.4666      1.4273  C       1  LIG       0.0000
     8  O8        -1.7793     -0.3293      2.8289  O       1  LIG       0.0000
     9  C9        -0.0521      0.9723      0.0749  C       1  LIG       0.0000
    10  H10       -0.4338      1.0941     -3.0845  H       1  LIG       0.0000
    11  H11        1.2355      1.3169     -2.6252  H       1  LIG       0.0000
    12  H12        0.7128     -0.2545     -3.2160  H       1  LIG       0.0000
    13  H13       -1.0017     -0.0798     -1.2865  H       1  LIG       0.0000
    14  H14        1.6109     -1.6237     -1.2002  H       1  LIG       0.0000
    15  H15        2.6666     -0.8285      1.1159  H       1  LIG       0.0000
    16  H16        0.9885      1.0450      2.0801  H       1  LIG       0.0000
    17  H17       -0.1341     -1.2267      0.0488  H       1  LIG       0.0000
    18  H18       -2.0630     -1.4608      1.0878  H       1  LIG       0.0000
    19  H19       -2.4709      0.3340      1.2181  H       1  LIG       0.0000
    20  H20       -1.0242      0.0184      3.2817  H       1  LIG       0.0000
    21  H21       -0.2669      2.0199      0.2309  H       1  LIG       0.0000
@<TRIPOS>BOND
    1     3    14  1
    2     1    11  1
    3     3     4  2
    4     2     3  1
    5     4    15  1
    6     1    10  1
    7     1     2  1
    8     1    12  1
    9     4     5  1
   10     2    13  1
   11     2     9  1
   12     7    18  1
   13     7    19  1
   14     7     8  1
   15     6     7  1
   16     5     9  1
   17     5     6  1
   18     5    16  1
   19     8    20  1
   20     6     9  1
   21     9    21  1
   22     6    17  1
