@<TRIPOS>MOLECULE
generated_molecule
15 15 0 0 0
SMALL
NO_CHARGES

@<TRIPOS>ATOM
     1  C1        -1.8405      1.0333      0.0162  C       1  LIG       0.0000
     2  C2        -0.4897      0.2791     -0.0892  C       1  LIG       0.0000
     3  C3         0.7459      0.2153      0.5850  C       1  LIG       0.0000
     4  N4         1.3866      0.9768      1.6801  N       1  LIG       0.0000
     5  N5         1.4951     -0.7965      0.1603  N       1  LIG       0.0000
     6  C6         0.7670     -1.2118     -0.8490  C       1  LIG       0.0000
     7  O7         1.1052     -2.3004     -1.5933  O       1  LIG       0.0000
     8  N8        -0.3637     -0.5360     -1.1093  N       1  LIG       0.0000
     9  H9        -2.3489      1.0159     -0.9423  H       1  LIG       0.0000
    10  H10       -1.7276      2.0718      0.2974  H       1  LIG       0.0000
    11  H11       -2.4251      0.5856      0.8151  H       1  LIG       0.0000
    12  H12        2.0390      0.5272      2.2442  H       1  LIG       0.0000
    13  H13        1.4886      1.8838      1.7927  H       1  LIG       0.0000
    14  H14        1.1644     -3.0896     -1.1045  H       1  LIG       0.0000
    15  H15       -0.9962     -0.6546     -1.9034  H       1  LIG       0.0000
@<TRIPOS>BOND
    1     4    13  1
    2     4    12  1
    3     3     4  1
    4     3     5  ar
    5     2     3  ar
    6     1    10  1
    7     5     6  ar
    8     1     2  1
    9     2     8  ar
   10     1    11  1
   11     1     9  1
   12     6     8  ar
   13     6     7  1
   14     7    14  1
   15     8    15  1
