@<TRIPOS>MOLECULE
generated_molecule
15 17 0 0 0
SMALL
NO_CHARGES

@<TRIPOS>ATOM
     1  O1         1.7238      0.8232      1.1095  O       1  LIG       0.0000
     2  C2         0.5111      0.4289      0.6124  C       1  LIG       0.0000
     3  C3        -0.3857     -0.5285      1.4433  C       1  LIG       0.0000
     4  O4        -0.5076     -1.3647      0.2643  O       1  LIG       0.0000
     5  C5        -0.0525     -0.9018     -1.0401  C       1  LIG       0.0000
     6  C6         0.7129      0.3999     -0.8855  C       1  LIG       0.0000
     7  C7        -0.6065      0.9847     -0.3126  C       1  LIG       0.0000
     8  C8        -1.1675      0.0759     -1.4019  C       1  LIG       0.0000
     9  O9        -2.0946      0.1047     -2.1678  O       1  LIG       0.0000
    10  H10        2.2436      0.0895      1.4405  H       1  LIG       0.0000
    11  H11        0.1284     -0.2564      2.3454  H       1  LIG       0.0000
    12  H12       -1.3437     -0.9076      1.7680  H       1  LIG       0.0000
    13  H13        0.4283     -1.5951     -1.7292  H       1  LIG       0.0000
    14  H14        1.5194      0.7774     -1.4864  H       1  LIG       0.0000
    15  H15       -1.1095      1.8701      0.0402  H       1  LIG       0.0000
@<TRIPOS>BOND
    1     3    11  1
    2     3     4  1
    3     4     5  1
    4     3    12  1
    5     2     3  1
    6     5    13  1
    7     5     6  1
    8     5     8  1
    9     6    14  1
   10     1     2  1
   11     2     6  1
   12     2     7  1
   13     1    10  1
   14     6     7  1
   15     7     8  1
   16     8     9  2
   17     7    15  1
