@<TRIPOS>MOLECULE
generated_molecule
20 20 0 0 0
SMALL
NO_CHARGES

@<TRIPOS>ATOM
     1  N1         2.3698     -1.0697      0.3060  N       1  LIG       0.0000
     2  C2         1.2992     -1.1809      0.6700  C       1  LIG       0.0000
     3  C3        -0.0992     -1.2930      1.1427  C       1  LIG       0.0000
     4  C4        -0.7149      0.1237      1.1579  C       1  LIG       0.0000
     5  C5        -1.5760      0.1611     -0.1233  C       1  LIG       0.0000
     6  C6        -0.3861      0.7224     -0.9092  C       1  LIG       0.0000
     7  C7         0.6539     -0.2093     -0.1673  C       1  LIG       0.0000
     8  O8         1.7109      0.4167     -0.8387  O       1  LIG       0.0000
     9  C9         0.8979      1.3138     -1.5180  C       1  LIG       0.0000
    10  H10       -0.2067     -1.7098      2.1571  H       1  LIG       0.0000
    11  H11       -0.5956     -1.9925      0.4805  H       1  LIG       0.0000
    12  H12       -1.4205      0.4771      1.9277  H       1  LIG       0.0000
    13  H13        0.1314      0.7711      1.2204  H       1  LIG       0.0000
    14  H14       -2.3709      0.7576     -0.5520  H       1  LIG       0.0000
    15  H15       -2.0653     -0.8022     -0.0068  H       1  LIG       0.0000
    16  H16       -1.0500      1.2929     -1.5209  H       1  LIG       0.0000
    17  H17        0.8424     -1.2392     -0.4609  H       1  LIG       0.0000
    18  H18        0.4760     -0.1031      0.9094  H       1  LIG       0.0000
    19  H19        0.8427      2.3845     -1.3423  H       1  LIG       0.0000
    20  H20        1.2610      1.1788     -2.5323  H       1  LIG       0.0000
@<TRIPOS>BOND
    1     7    18  1
    2     7    17  1
    3     7     8  1
    4     6     7  1
    5     8     9  1
    6     4    13  1
    7     3    10  1
    8     5    14  1
    9     1     2  3
   10     2     3  1
   11     9    19  1
   12     3     4  1
   13     4     5  1
   14     4    12  1
   15     3    11  1
   16     6     9  1
   17     9    20  1
   18     5     6  1
   19     6    16  1
   20     5    15  1
