@<TRIPOS>MOLECULE
generated_molecule
16 16 0 0 0
SMALL
NO_CHARGES

@<TRIPOS>ATOM
     1  C1        -1.0740      2.0635     -0.9811  C       1  LIG       0.0000
     2  O2        -1.2563      0.8457     -1.6509  O       1  LIG       0.0000
     3  C3        -0.5417      0.0230     -0.9929  C       1  LIG       0.0000
     4  N4        -0.9406     -0.8180     -0.0919  N       1  LIG       0.0000
     5  N5         0.2080     -1.0384      0.5746  N       1  LIG       0.0000
     6  C6         0.1550     -1.6865      1.8602  C       1  LIG       0.0000
     7  C7         1.3730     -0.6306     -0.0414  C       1  LIG       0.0000
     8  O8         2.5699     -0.7429      0.3047  O       1  LIG       0.0000
     9  N9         0.8183     -0.0064     -1.1630  N       1  LIG       0.0000
    10  H10       -0.0583      2.4230     -1.2630  H       1  LIG       0.0000
    11  H11       -1.1546      1.9619      0.1265  H       1  LIG       0.0000
    12  H12       -1.8347      2.7418     -1.2785  H       1  LIG       0.0000
    13  H13       -0.8460     -2.0129      2.0922  H       1  LIG       0.0000
    14  H14        0.7555     -2.5882      1.8776  H       1  LIG       0.0000
    15  H15        0.5057     -0.9352      2.5680  H       1  LIG       0.0000
    16  H16        1.3207      0.4003     -1.9412  H       1  LIG       0.0000
@<TRIPOS>BOND
    1     6    13  1
    2     6    15  1
    3     6    14  1
    4     5     6  1
    5     7     8  2
    6     5     7  ar
    7     4     5  ar
    8     7     9  ar
    9     3     4  ar
   10     3     9  ar
   11     9    16  1
   12     2     3  1
   13     1    11  1
   14     1     2  1
   15     1    10  1
   16     1    12  1
