@<TRIPOS>MOLECULE
generated_molecule
16 17 0 0 0
SMALL
NO_CHARGES

@<TRIPOS>ATOM
     1  C1        -0.6518      1.9278      0.6484  C       1  LIG       0.0000
     2  C2        -0.0252      0.5384      0.5106  C       1  LIG       0.0000
     3  C3         1.4655      0.1438      0.3946  C       1  LIG       0.0000
     4  C4         1.1717     -1.3468      0.1745  C       1  LIG       0.0000
     5  O5         1.6779     -2.4232      0.2109  O       1  LIG       0.0000
     6  C6        -0.1771     -0.8143     -0.2028  C       1  LIG       0.0000
     7  N7        -0.9379     -0.4860      0.9844  N       1  LIG       0.0000
     8  C8        -0.6947     -1.1798     -1.5002  C       1  LIG       0.0000
     9  C9        -1.1237     -1.4991     -2.5732  C       1  LIG       0.0000
    10  H10       -1.7355      1.8953      0.5834  H       1  LIG       0.0000
    11  H11       -0.3616      2.3460      1.6032  H       1  LIG       0.0000
    12  H12       -0.3016      2.5875     -0.1356  H       1  LIG       0.0000
    13  H13        2.1774     -0.0319      1.2189  H       1  LIG       0.0000
    14  H14        1.7625      0.8923     -0.3338  H       1  LIG       0.0000
    15  H15       -0.7127     -0.7775      1.9380  H       1  LIG       0.0000
    16  H16       -1.5332     -1.7725     -3.5213  H       1  LIG       0.0000
@<TRIPOS>BOND
    1     3    14  1
    2     1    11  1
    3     7    15  1
    4     2     7  1
    5     6     7  1
    6     2     3  1
    7     3    13  1
    8     3     4  1
    9     1     2  1
   10     1    10  1
   11     1    12  1
   12     2     6  1
   13     4     6  1
   14     4     5  2
   15     6     8  1
   16     8     9  3
   17     9    16  1
