@<TRIPOS>MOLECULE
generated_molecule
19 20 0 0 0
SMALL
NO_CHARGES

@<TRIPOS>ATOM
     1  C1        -0.2623      1.7597     -0.4544  C       1  LIG       0.0000
     2  C2        -0.1227      0.3334     -1.0160  C       1  LIG       0.0000
     3  C3         0.9956     -0.7483     -1.1680  C       1  LIG       0.0000
     4  C4         1.1879     -1.1721      0.3027  C       1  LIG       0.0000
     5  C5        -0.2608     -0.8132      0.7648  C       1  LIG       0.0000
     6  C6        -0.4214      0.2260      1.8788  C       1  LIG       0.0000
     7  O7        -1.4849      0.7349      2.2072  O       1  LIG       0.0000
     8  C8        -1.2977     -0.3558     -0.4473  C       1  LIG       0.0000
     9  O9        -1.1981      0.0080     -1.8203  O       1  LIG       0.0000
    10  H10        0.7345      2.0817     -0.1611  H       1  LIG       0.0000
    11  H11       -0.6639      2.4235     -1.2151  H       1  LIG       0.0000
    12  H12       -0.9123      1.8185      0.4100  H       1  LIG       0.0000
    13  H13        2.0391     -0.5140     -1.3729  H       1  LIG       0.0000
    14  H14        0.5906     -1.3524     -1.9853  H       1  LIG       0.0000
    15  H15        1.7358     -0.7350      1.1246  H       1  LIG       0.0000
    16  H16        1.7047     -2.1174      0.1034  H       1  LIG       0.0000
    17  H17       -0.4742     -1.7929      1.1146  H       1  LIG       0.0000
    18  H18        0.5032      0.5489      2.3760  H       1  LIG       0.0000
    19  H19       -2.3931     -0.3334     -0.6418  H       1  LIG       0.0000
@<TRIPOS>BOND
    1     3    14  1
    2     1    11  1
    3     4    16  1
    4     3    13  1
    5     2     3  1
    6     3     4  1
    7     1     2  1
    8     1    10  1
    9     1    12  1
   10     2     9  1
   11     8     9  1
   12     2     8  1
   13     4    15  1
   14     4     5  1
   15     6    18  1
   16     5     8  1
   17     8    19  1
   18     5     6  1
   19     5    17  1
   20     6     7  2
