@<TRIPOS>MOLECULE
generated_molecule
13 14 0 0 0
SMALL
NO_CHARGES

@<TRIPOS>ATOM
     1  O1         0.7507      2.4551     -1.2706  O       1  LIG       0.0000
     2  C2         0.3686      1.3776     -0.8633  C       1  LIG       0.0000
     3  C3         0.5973      0.0257     -1.4376  C       1  LIG       0.0000
     4  C4         0.6158     -1.3399     -0.7206  C       1  LIG       0.0000
     5  N5        -0.3907     -0.4069     -0.3792  N       1  LIG       0.0000
     6  C6        -0.4728      0.8982      0.3253  C       1  LIG       0.0000
     7  C7        -0.8039      0.1905      1.5512  C       1  LIG       0.0000
     8  C8        -1.0919     -0.3942      2.5638  C       1  LIG       0.0000
     9  H9         1.0007      0.0153     -2.4239  H       1  LIG       0.0000
    10  H10        0.0304     -2.2274     -0.9588  H       1  LIG       0.0000
    11  H11        1.5973     -1.5559     -0.3298  H       1  LIG       0.0000
    12  H12       -0.8453      1.8978      0.4932  H       1  LIG       0.0000
    13  H13       -1.3564     -0.9360      3.4504  H       1  LIG       0.0000
@<TRIPOS>BOND
    1     6    12  1
    2     3     9  1
    3     3     5  1
    4     5     6  1
    5     4     5  1
    6     2     3  1
    7     3     4  1
    8     1     2  2
    9     2     6  1
   10     6     7  1
   11     4    10  1
   12     4    11  1
   13     7     8  3
   14     8    13  1
