@<TRIPOS>MOLECULE
generated_molecule
19 22 0 0 0
SMALL
NO_CHARGES

@<TRIPOS>ATOM
     1  C1         0.1904     -1.7907     -0.9732  C       1  LIG       0.0000
     2  C2         1.0831     -0.8142     -0.1234  C       1  LIG       0.0000
     3  C3         0.7325      0.8013      0.5947  C       1  LIG       0.0000
     4  C4         0.1535      2.1129      0.1256  C       1  LIG       0.0000
     5  C5        -0.9326      1.1299     -0.2286  C       1  LIG       0.0000
     6  O6        -1.7607      0.1740     -0.8360  O       1  LIG       0.0000
     7  C7        -1.1252     -1.0806     -0.6322  C       1  LIG       0.0000
     8  C8        -0.6366     -0.2342      0.5854  C       1  LIG       0.0000
     9  C9         0.8954     -0.4230      1.1681  C       1  LIG       0.0000
    10  H10        0.8057     -2.6684     -0.8060  H       1  LIG       0.0000
    11  H11       -0.1617     -2.0389     -1.9842  H       1  LIG       0.0000
    12  H12        2.0483     -1.3437     -0.1830  H       1  LIG       0.0000
    13  H13        0.8364      1.4281      1.4873  H       1  LIG       0.0000
    14  H14       -0.0046      2.9007     -0.6160  H       1  LIG       0.0000
    15  H15        0.6330      2.7982      0.8007  H       1  LIG       0.0000
    16  H16       -1.4444      2.0070     -0.6441  H       1  LIG       0.0000
    17  H17       -1.9597     -1.7220     -0.9505  H       1  LIG       0.0000
    18  H18       -1.1690     -0.5754      1.4683  H       1  LIG       0.0000
    19  H19        1.8162     -0.6611      1.7469  H       1  LIG       0.0000
@<TRIPOS>BOND
    1     1    11  1
    2     7    17  1
    3     9    19  1
    4     2    12  1
    5     1     7  1
    6     1     2  1
    7     1    10  1
    8     8    18  1
    9     7     8  1
   10     6     7  1
   11     2     9  1
   12     2     3  1
   13     8     9  1
   14     3     9  1
   15     5     8  1
   16     3    13  1
   17     3     4  1
   18     5     6  1
   19     5    16  1
   20     4     5  1
   21     4    15  1
   22     4    14  1
