@<TRIPOS>MOLECULE
generated_molecule
21 23 0 0 0
SMALL
NO_CHARGES

@<TRIPOS>ATOM
     1  O1        -3.1020      0.1984     -0.2975  O       1  LIG       0.0000
     2  C2        -1.8767      0.8908     -0.1035  C       1  LIG       0.0000
     3  C3        -0.5617      1.5308     -0.5709  C       1  LIG       0.0000
     4  C4         0.3477      0.3922     -0.0680  C       1  LIG       0.0000
     5  C5         1.1844      0.1562      1.2111  C       1  LIG       0.0000
     6  C6         0.2895     -1.0475      0.9282  C       1  LIG       0.0000
     7  C7         1.4589     -1.4858     -0.0266  C       1  LIG       0.0000
     8  C8         1.4547     -0.2526     -0.9429  C       1  LIG       0.0000
     9  C9        -0.9588     -0.3445      0.3028  C       1  LIG       0.0000
    10  H10       -3.6924      0.2471     -0.9789  H       1  LIG       0.0000
    11  H11       -2.3178      1.8743      0.0544  H       1  LIG       0.0000
    12  H12       -0.2425      2.4316     -0.0589  H       1  LIG       0.0000
    13  H13       -0.6081      1.6600     -1.6524  H       1  LIG       0.0000
    14  H14        1.2616      1.2017      1.4856  H       1  LIG       0.0000
    15  H15        1.9451     -0.4586      1.6814  H       1  LIG       0.0000
    16  H16       -0.1111     -1.7077      1.6796  H       1  LIG       0.0000
    17  H17        2.4079     -1.5296     -0.5702  H       1  LIG       0.0000
    18  H18        1.2323     -2.4363      0.4520  H       1  LIG       0.0000
    19  H19        2.4420      0.2051     -0.9554  H       1  LIG       0.0000
    20  H20        1.0890     -0.3424     -1.9603  H       1  LIG       0.0000
    21  H21       -1.6421     -1.1833      0.3905  H       1  LIG       0.0000
@<TRIPOS>BOND
    1     2    11  1
    2     6    16  1
    3     9    21  1
    4     1     2  1
    5     1    10  1
    6     2     9  1
    7     2     3  1
    8     6     9  1
    9     4     9  1
   10     6     7  1
   11     5     6  1
   12     7    17  1
   13     7    18  1
   14     7     8  1
   15     5    14  1
   16     3    12  1
   17     4     5  1
   18     5    15  1
   19     3     4  1
   20     3    13  1
   21     4     8  1
   22     8    20  1
   23     8    19  1
