@<TRIPOS>MOLECULE
generated_molecule
18 19 0 0 0
SMALL
NO_CHARGES

@<TRIPOS>ATOM
     1  O1         0.1635      1.5093      2.1616  O       1  LIG       0.0000
     2  N2         0.6552      1.3020      0.9459  N       1  LIG       0.0000
     3  C3         0.0246      1.0304     -0.0841  C       1  LIG       0.0000
     4  C4         0.5837      0.8878     -1.4776  C       1  LIG       0.0000
     5  C5        -0.1207     -0.2344     -0.6890  C       1  LIG       0.0000
     6  C6         0.9264     -1.3072     -0.6685  C       1  LIG       0.0000
     7  C7        -0.1912     -1.3561      0.3248  C       1  LIG       0.0000
     8  O8        -0.1316     -0.9891      1.6726  O       1  LIG       0.0000
     9  C9        -1.3613      0.6373     -0.6222  C       1  LIG       0.0000
    10  H10        0.4352      1.4504      3.0658  H       1  LIG       0.0000
    11  H11        0.3961      1.8836     -1.8462  H       1  LIG       0.0000
    12  H12        1.3365      0.3321     -2.0117  H       1  LIG       0.0000
    13  H13        1.9097     -1.0212     -0.2959  H       1  LIG       0.0000
    14  H14        0.8934     -2.0448     -1.4717  H       1  LIG       0.0000
    15  H15       -0.8314     -2.2497      0.2069  H       1  LIG       0.0000
    16  H16       -0.8211     -1.2953      2.1994  H       1  LIG       0.0000
    17  H17       -2.0693      0.7183      0.1861  H       1  LIG       0.0000
    18  H18       -1.7976      0.7467     -1.5962  H       1  LIG       0.0000
@<TRIPOS>BOND
    1     8    16  1
    2     7     8  1
    3     7    15  1
    4     5     7  1
    5     6     7  1
    6     4    12  1
    7     9    17  1
    8     5     6  1
    9     4     5  1
   10     5     9  1
   11     6    14  1
   12     6    13  1
   13     3     4  1
   14     4    11  1
   15     3     9  1
   16     9    18  1
   17     2     3  1
   18     1     2  1
   19     1    10  1
