@<TRIPOS>MOLECULE
generated_molecule
13 14 0 0 0
SMALL
NO_CHARGES

@<TRIPOS>ATOM
     1  N1         2.1586      1.1109      0.6710  N       1  LIG       0.0000
     2  C2         0.9902      0.4860      0.7842  C       1  LIG       0.0000
     3  O3         0.3564      0.0698      1.9001  O       1  LIG       0.0000
     4  C4        -0.7053     -0.6207      1.2802  C       1  LIG       0.0000
     5  C5        -1.5438     -0.5772      0.0451  C       1  LIG       0.0000
     6  C6        -0.1230     -0.0418     -0.0359  C       1  LIG       0.0000
     7  C7         0.1857      0.1880     -1.4444  C       1  LIG       0.0000
     8  C8         0.4520      0.3867     -2.5829  C       1  LIG       0.0000
     9  H9         2.8258      1.1017      1.4297  H       1  LIG       0.0000
    10  H10       -1.1733     -1.2919      1.9852  H       1  LIG       0.0000
    11  H11       -1.6356     -1.3231     -0.7506  H       1  LIG       0.0000
    12  H12       -2.4624     -0.0536      0.3195  H       1  LIG       0.0000
    13  H13        0.6746      0.5652     -3.6014  H       1  LIG       0.0000
@<TRIPOS>BOND
    1     8    13  1
    2     7     8  3
    3     6     7  1
    4     4    10  1
    5     4     6  1
    6     2     6  1
    7     5     6  1
    8     3     4  1
    9     4     5  1
   10     1     2  1
   11     1     9  1
   12     2     3  1
   13     5    11  1
   14     5    12  1
