@<TRIPOS>MOLECULE
generated_molecule
20 20 0 0 0
SMALL
NO_CHARGES

@<TRIPOS>ATOM
     1  C1         1.4567      2.1504      0.8348  C       1  LIG       0.0000
     2  C2         0.2612      1.3046      1.3519  C       1  LIG       0.0000
     3  C3        -0.6214      0.6107      0.2565  C       1  LIG       0.0000
     4  C4        -1.7175     -0.5069      0.0261  C       1  LIG       0.0000
     5  O5        -1.1983     -1.7508     -0.2196  O       1  LIG       0.0000
     6  C6        -0.1156     -2.4198     -0.8714  C       1  LIG       0.0000
     7  C7         0.4229     -1.1128     -1.4501  C       1  LIG       0.0000
     8  O8         0.2516     -0.3509     -0.3133  O       1  LIG       0.0000
     9  H9         1.4266      2.2017     -0.2510  H       1  LIG       0.0000
    10  H10        1.4284      3.1717      1.2190  H       1  LIG       0.0000
    11  H11        2.4181      1.7129      1.1161  H       1  LIG       0.0000
    12  H12       -0.4521      1.8735      1.9523  H       1  LIG       0.0000
    13  H13        0.7602      0.5983      2.0329  H       1  LIG       0.0000
    14  H14       -1.1139      1.5050     -0.0976  H       1  LIG       0.0000
    15  H15       -2.3759     -0.1403     -0.7581  H       1  LIG       0.0000
    16  H16       -2.2868     -0.7670      0.8977  H       1  LIG       0.0000
    17  H17        0.7719     -2.8461     -1.3622  H       1  LIG       0.0000
    18  H18       -0.6421     -3.2355     -0.4314  H       1  LIG       0.0000
    19  H19       -0.1596     -1.0532     -2.3716  H       1  LIG       0.0000
    20  H20        1.4855     -0.9458     -1.5610  H       1  LIG       0.0000
@<TRIPOS>BOND
    1     6    17  1
    2     7    20  1
    3     7    19  1
    4     6     7  1
    5     7     8  1
    6     6    18  1
    7     5     6  1
    8     4     5  1
    9     3     8  1
   10     3    14  1
   11     3     4  1
   12     2     3  1
   13     4    16  1
   14     4    15  1
   15     1    10  1
   16     1     2  1
   17     2    13  1
   18     2    12  1
   19     1     9  1
   20     1    11  1
