@<TRIPOS>MOLECULE
generated_molecule
18 21 0 0 0
SMALL
NO_CHARGES

@<TRIPOS>ATOM
     1  C1         1.4268     -1.4986     -0.1093  C       1  LIG       0.0000
     2  C2        -0.1172     -1.5691      0.1595  C       1  LIG       0.0000
     3  C3        -0.8619     -0.1737      0.1270  C       1  LIG       0.0000
     4  C4         0.0486      1.0220      0.7462  C       1  LIG       0.0000
     5  C5        -1.0748      2.0324      0.7033  C       1  LIG       0.0000
     6  C6        -1.1272      1.1243     -0.5514  C       1  LIG       0.0000
     7  N7        -1.8405      0.7906      0.6425  N       1  LIG       0.0000
     8  C8         0.3252      0.6895     -0.6987  C       1  LIG       0.0000
     9  C9         1.6751     -0.0993     -0.7567  C       1  LIG       0.0000
    10  H10        2.5259     -1.2752     -0.1173  H       1  LIG       0.0000
    11  H11        1.2598     -2.5332      0.0875  H       1  LIG       0.0000
    12  H12       -0.8690     -1.9967     -0.4871  H       1  LIG       0.0000
    13  H13        0.0392     -2.2344      1.0243  H       1  LIG       0.0000
    14  H14       -1.6270     -0.3008     -0.5943  H       1  LIG       0.0000
    15  H15        0.9198      1.4307      1.3531  H       1  LIG       0.0000
    16  H16       -1.2697      3.0166      1.0641  H       1  LIG       0.0000
    17  H17       -1.8979      1.2281     -1.3247  H       1  LIG       0.0000
    18  H18        2.4647      0.3469     -1.2680  H       1  LIG       0.0000
@<TRIPOS>BOND
    1     5    16  1
    2     4    15  1
    3     4     5  1
    4     5     7  1
    5     5     6  1
    6     3     4  1
    7     4     8  1
    8     3    14  1
    9     3     7  1
   10     2     3  1
   11     1    11  1
   12     6     8  1
   13     8     9  1
   14     6     7  1
   15     6    17  1
   16     2    12  1
   17     1     2  1
   18     2    13  1
   19     1     9  1
   20     1    10  1
   21     9    18  1
