@<TRIPOS>MOLECULE
generated_molecule
17 17 0 0 0
SMALL
NO_CHARGES

@<TRIPOS>ATOM
     1  C1         1.7257      1.8328     -1.6236  C       1  LIG       0.0000
     2  C2         1.4468      0.6087     -0.6939  C       1  LIG       0.0000
     3  O3         2.4148     -0.0658     -0.3888  O       1  LIG       0.0000
     4  C4         0.0063      0.1634     -0.1122  C       1  LIG       0.0000
     5  C5        -1.1189      0.9336     -0.2254  C       1  LIG       0.0000
     6  O6        -2.1636      0.0876     -0.1948  O       1  LIG       0.0000
     7  C7        -1.7897     -1.1716      0.1535  C       1  LIG       0.0000
     8  C8        -0.6773     -0.8608      0.6794  C       1  LIG       0.0000
     9  C9        -0.4409     -1.8083      1.8537  C       1  LIG       0.0000
    10  H10        2.0475      2.7019     -1.0499  H       1  LIG       0.0000
    11  H11        0.8108      2.0934     -2.1676  H       1  LIG       0.0000
    12  H12        2.4906      1.6525     -2.3741  H       1  LIG       0.0000
    13  H13       -1.2786      1.9622     -0.4128  H       1  LIG       0.0000
    14  H14       -2.3543     -2.0523      0.1407  H       1  LIG       0.0000
    15  H15        0.0079     -1.2516      2.6685  H       1  LIG       0.0000
    16  H16       -1.4069     -2.2420      2.1026  H       1  LIG       0.0000
    17  H17        0.2799     -2.5838      1.6448  H       1  LIG       0.0000
@<TRIPOS>BOND
    1     1    11  1
    2     9    15  1
    3     1    10  1
    4     2     3  2
    5     1     2  1
    6     1    12  1
    7     2     4  1
    8     8     9  1
    9     9    17  1
   10     9    16  1
   11     4     8  ar
   12     4     5  ar
   13     7     8  ar
   14     5    13  1
   15     5     6  ar
   16     6     7  ar
   17     7    14  1
