@<TRIPOS>MOLECULE
generated_molecule
18 19 0 0 0
SMALL
NO_CHARGES

@<TRIPOS>ATOM
     1  C1         1.8647     -0.8908     -0.7668  C       1  LIG       0.0000
     2  C2         0.5276     -0.4730     -0.2051  C       1  LIG       0.0000
     3  N3         0.6401      0.0113      1.1919  N       1  LIG       0.0000
     4  C4        -0.4632      0.4759      1.8475  C       1  LIG       0.0000
     5  N5        -0.5470      1.3065      2.9587  N       1  LIG       0.0000
     6  O6        -1.4604     -0.0888      1.1672  O       1  LIG       0.0000
     7  C7        -0.9188     -0.8279      0.0383  C       1  LIG       0.0000
     8  C8        -0.4484     -0.3438     -1.3568  C       1  LIG       0.0000
     9  N9        -0.9076      0.8737     -2.1007  N       1  LIG       0.0000
    10  H10        2.5644     -0.0616     -0.6888  H       1  LIG       0.0000
    11  H11        2.2502     -1.7450     -0.2216  H       1  LIG       0.0000
    12  H12        1.7662     -1.1681     -1.8086  H       1  LIG       0.0000
    13  H13       -1.1432      1.2862      3.7356  H       1  LIG       0.0000
    14  H14        0.0966      2.0281      3.1970  H       1  LIG       0.0000
    15  H15       -1.3210     -1.8282      0.0095  H       1  LIG       0.0000
    16  H16       -0.3070     -1.0904     -2.1129  H       1  LIG       0.0000
    17  H17       -1.6646      0.7394     -2.7346  H       1  LIG       0.0000
    18  H18       -0.5287      1.7966     -2.1497  H       1  LIG       0.0000
@<TRIPOS>BOND
    1     9    18  1
    2     9    17  1
    3     8     9  1
    4     1    11  1
    5     8    16  1
    6     2     8  1
    7     7     8  1
    8     2     3  1
    9     3     4  1
   10     1     2  1
   11     1    10  1
   12     1    12  1
   13     2     7  1
   14     5    13  1
   15     4     5  1
   16     4     6  1
   17     5    14  1
   18     6     7  1
   19     7    15  1
