@<TRIPOS>MOLECULE
generated_molecule
20 21 0 0 0
SMALL
NO_CHARGES

@<TRIPOS>ATOM
     1  C1        -0.0424      0.6181     -2.0736  C       1  LIG       0.0000
     2  C2        -0.2880     -0.8431     -1.6054  C       1  LIG       0.0000
     3  C3        -0.1417     -0.5180     -0.1030  C       1  LIG       0.0000
     4  C4        -1.0323      0.4609     -0.9005  C       1  LIG       0.0000
     5  C5         1.1699     -0.5771      0.7444  C       1  LIG       0.0000
     6  C6         1.0019      0.7600      1.5440  C       1  LIG       0.0000
     7  C7        -0.3186      0.2635      2.1110  C       1  LIG       0.0000
     8  C8        -0.7393     -0.7050      1.2824  C       1  LIG       0.0000
     9  H9         0.4885      0.3641     -2.9748  H       1  LIG       0.0000
    10  H10        0.0203      1.6800     -1.9674  H       1  LIG       0.0000
    11  H11       -1.2960     -1.1717     -1.8300  H       1  LIG       0.0000
    12  H12        0.5209     -1.4742     -1.9714  H       1  LIG       0.0000
    13  H13       -1.9339     -0.0882     -1.1555  H       1  LIG       0.0000
    14  H14       -1.1299      1.4716     -0.4868  H       1  LIG       0.0000
    15  H15        1.3924     -1.2081      1.6003  H       1  LIG       0.0000
    16  H16        1.8547     -0.8055     -0.0716  H       1  LIG       0.0000
    17  H17        2.0725      0.8983      1.5144  H       1  LIG       0.0000
    18  H18        0.5961      1.7499      1.7708  H       1  LIG       0.0000
    19  H19       -0.7665      0.6203      3.0258  H       1  LIG       0.0000
    20  H20       -1.4285     -1.4959      1.5470  H       1  LIG       0.0000
@<TRIPOS>BOND
    1     4    14  1
    2     1    10  1
    3     2    11  1
    4     5    16  1
    5     5    15  1
    6     1     4  1
    7     1     2  1
    8     1     9  1
    9     4    13  1
   10     3     4  1
   11     2     3  1
   12     2    12  1
   13     3     5  1
   14     5     6  1
   15     3     8  1
   16     6    18  1
   17     6    17  1
   18     6     7  1
   19     7     8  2
   20     8    20  1
   21     7    19  1
