@<TRIPOS>MOLECULE
generated_molecule
16 17 0 0 0
SMALL
NO_CHARGES

@<TRIPOS>ATOM
     1  O1         1.0592      0.5376      1.7765  O       1  LIG       0.0000
     2  C2         0.0128      0.4258      1.1558  C       1  LIG       0.0000
     3  C3        -0.0968      0.0511     -0.3417  C       1  LIG       0.0000
     4  C4        -0.8357     -1.1282     -1.1032  C       1  LIG       0.0000
     5  C5        -0.2071     -1.2553      0.2886  C       1  LIG       0.0000
     6  C6         0.0919      0.2124      0.8932  C       1  LIG       0.0000
     7  O7         0.8344      1.1917      0.2131  O       1  LIG       0.0000
     8  C8         0.9027      1.2685     -1.1995  C       1  LIG       0.0000
     9  N9         0.2319      0.3493     -1.6646  N       1  LIG       0.0000
    10  H10       -0.9421      0.6746      1.6480  H       1  LIG       0.0000
    11  H11       -0.9660     -0.5917     -2.0370  H       1  LIG       0.0000
    12  H12       -1.2940     -2.1205     -1.0566  H       1  LIG       0.0000
    13  H13       -0.1279     -2.3101      0.5121  H       1  LIG       0.0000
    14  H14       -0.7494      0.8628      1.0107  H       1  LIG       0.0000
    15  H15        0.6388     -0.1592      1.7467  H       1  LIG       0.0000
    16  H16        1.4474      1.9913     -1.8420  H       1  LIG       0.0000
@<TRIPOS>BOND
    1     6    14  1
    2     6    15  1
    3     5    13  1
    4     5     6  1
    5     6     7  1
    6     3     5  1
    7     4     5  1
    8     7     8  1
    9     1     2  2
   10     2     3  1
   11     3     4  1
   12     3     9  1
   13     8    16  1
   14     8     9  2
   15     2    10  1
   16     4    11  1
   17     4    12  1
