@<TRIPOS>MOLECULE
generated_molecule
14 14 0 0 0
SMALL
NO_CHARGES

@<TRIPOS>ATOM
     1  O1        -2.3838     -1.6280      0.6670  O       1  LIG       0.0000
     2  C2        -1.3645     -1.0553      0.3967  C       1  LIG       0.0000
     3  N3        -0.1281     -1.6631      0.0369  N       1  LIG       0.0000
     4  C4         1.0906     -1.0791     -0.5171  C       1  LIG       0.0000
     5  C5         1.3310      0.2269     -0.7839  C       1  LIG       0.0000
     6  C6         0.5673      1.4580     -0.3391  C       1  LIG       0.0000
     7  O7         0.8740      2.5550     -0.7594  O       1  LIG       0.0000
     8  C8        -0.6446      1.3719      0.6401  C       1  LIG       0.0000
     9  O9        -1.4095      0.2423      0.4071  O       1  LIG       0.0000
    10  H10       -0.2369     -2.6475      0.2415  H       1  LIG       0.0000
    11  H11        1.8643     -1.8324     -0.7241  H       1  LIG       0.0000
    12  H12        2.1725      0.4707     -1.4000  H       1  LIG       0.0000
    13  H13       -1.6797      1.6415      0.7729  H       1  LIG       0.0000
    14  H14       -0.0525      1.9391      1.3615  H       1  LIG       0.0000
@<TRIPOS>BOND
    1     8    13  1
    2     8    14  1
    3     6     8  1
    4     8     9  1
    5     6     7  2
    6     5     6  1
    7     5    12  1
    8     4     5  2
    9     3     4  1
   10     3    10  1
   11     2     3  1
   12     2     9  1
   13     4    11  1
   14     1     2  2
