@<TRIPOS>MOLECULE
generated_molecule
17 19 0 0 0
SMALL
NO_CHARGES

@<TRIPOS>ATOM
     1  O1        -1.0700      2.2693      1.3669  O       1  LIG       0.0000
     2  C2        -0.6030      1.3949      0.7346  C       1  LIG       0.0000
     3  C3        -0.1004      0.7179     -0.5565  C       1  LIG       0.0000
     4  C4         0.6081     -0.5247     -1.1112  C       1  LIG       0.0000
     5  N5        -0.2860      0.3240     -1.8830  N       1  LIG       0.0000
     6  C6         0.0323      1.5797      0.6617  C       1  LIG       0.0000
     7  C7        -0.0630      0.0275      0.6583  C       1  LIG       0.0000
     8  C8         0.2887     -1.3854      0.9898  C       1  LIG       0.0000
     9  N9        -0.2503     -1.0390     -0.3093  N       1  LIG       0.0000
    10  H10        1.4626     -0.6105     -1.7682  H       1  LIG       0.0000
    11  H11        0.4633     -1.3863     -0.5045  H       1  LIG       0.0000
    12  H12       -1.0809      0.1295     -2.3775  H       1  LIG       0.0000
    13  H13        0.5199      2.4272      0.1618  H       1  LIG       0.0000
    14  H14       -0.3537      1.7382      1.6594  H       1  LIG       0.0000
    15  H15        1.1635     -1.9895      0.8053  H       1  LIG       0.0000
    16  H16       -0.1344     -1.7109      1.9200  H       1  LIG       0.0000
    17  H17       -0.5967     -1.9620     -0.4475  H       1  LIG       0.0000
@<TRIPOS>BOND
    1     4    11  1
    2     9    17  1
    3     4    10  1
    4     7     9  1
    5     8     9  1
    6     3     4  1
    7     4     5  1
    8     1     2  2
    9     6    13  1
   10     2     3  1
   11     2     7  1
   12     3     6  1
   13     3     5  1
   14     6     7  1
   15     7     8  1
   16     6    14  1
   17     8    16  1
   18     8    15  1
   19     5    12  1
