@<TRIPOS>MOLECULE
generated_molecule
20 19 0 0 0
SMALL
NO_CHARGES

@<TRIPOS>ATOM
     1  C1         0.6318      2.0717     -0.2977  C       1  LIG       0.0000
     2  N2         0.2681      1.3029      0.9304  N       1  LIG       0.0000
     3  C3         0.0873     -0.0665      1.3629  C       1  LIG       0.0000
     4  O4         0.1100     -0.3284      2.5122  O       1  LIG       0.0000
     5  N5        -0.1409     -1.1827      0.5547  N       1  LIG       0.0000
     6  C6        -0.0289     -2.6240      0.6600  C       1  LIG       0.0000
     7  C7        -0.0436     -0.4882     -0.6125  C       1  LIG       0.0000
     8  C8        -1.0371      0.7013     -0.7784  C       1  LIG       0.0000
     9  N9         0.8706     -0.8949     -1.4903  N       1  LIG       0.0000
    10  H10        1.0718      1.4592     -1.0952  H       1  LIG       0.0000
    11  H11        1.3544      2.8350      0.0017  H       1  LIG       0.0000
    12  H12       -0.2334      2.5531     -0.7562  H       1  LIG       0.0000
    13  H13        0.1352      1.9719      1.6147  H       1  LIG       0.0000
    14  H14        0.4740     -3.0695     -0.1943  H       1  LIG       0.0000
    15  H15       -1.0091     -3.0652      0.7160  H       1  LIG       0.0000
    16  H16        0.5301     -2.8109      1.5682  H       1  LIG       0.0000
    17  H17       -2.0738      0.3755     -0.7122  H       1  LIG       0.0000
    18  H18       -0.9330      1.1951     -1.7496  H       1  LIG       0.0000
    19  H19       -0.8551      1.4398     -0.0033  H       1  LIG       0.0000
    20  H20        0.8217     -1.3752     -2.2311  H       1  LIG       0.0000
@<TRIPOS>BOND
    1     8    17  1
    2     1    10  1
    3     8    18  1
    4     8    19  1
    5     7     8  1
    6     3     4  2
    7     1    11  1
    8     1    12  1
    9     1     2  1
   10     2     3  1
   11     3     5  1
   12     2    13  1
   13     5     7  1
   14     7     9  2
   15     5     6  1
   16     9    20  1
   17     6    16  1
   18     6    14  1
   19     6    15  1
