@<TRIPOS>MOLECULE
generated_molecule
23 24 0 0 0
SMALL
NO_CHARGES

@<TRIPOS>ATOM
     1  C1        -0.1558      0.2330      1.2618  C       1  LIG       0.0000
     2  C2        -0.8488      1.1112      0.2138  C       1  LIG       0.0000
     3  C3        -2.0641      0.2261     -0.1890  C       1  LIG       0.0000
     4  C4        -1.3298     -0.6831      0.8005  C       1  LIG       0.0000
     5  C5        -0.6018     -1.8219      0.0973  C       1  LIG       0.0000
     6  C6         0.7311     -1.7184     -0.1832  C       1  LIG       0.0000
     7  C7         1.6430     -0.4964     -0.0189  C       1  LIG       0.0000
     8  C8         1.7206      0.8448     -0.7690  C       1  LIG       0.0000
     9  C9         0.2197      1.2818     -0.9309  C       1  LIG       0.0000
    10  H10        0.8866      0.4264      1.0072  H       1  LIG       0.0000
    11  H11       -0.1842      0.0795      2.3372  H       1  LIG       0.0000
    12  H12       -1.2867      1.9343      0.7656  H       1  LIG       0.0000
    13  H13       -2.1382      0.0543     -1.2616  H       1  LIG       0.0000
    14  H14       -3.0869      0.4190      0.1255  H       1  LIG       0.0000
    15  H15       -2.1059     -0.8946      1.5310  H       1  LIG       0.0000
    16  H16       -1.2078     -2.6867     -0.1179  H       1  LIG       0.0000
    17  H17        1.1344     -2.6460     -0.5880  H       1  LIG       0.0000
    18  H18        2.0610     -1.4574      0.2498  H       1  LIG       0.0000
    19  H19        1.9143      0.4434      0.4494  H       1  LIG       0.0000
    20  H20        2.7666      0.5505     -0.5744  H       1  LIG       0.0000
    21  H21        1.8771      1.7501     -1.3685  H       1  LIG       0.0000
    22  H22        0.0416      0.6980     -1.8320  H       1  LIG       0.0000
    23  H23        0.0138      2.3523     -1.0056  H       1  LIG       0.0000
@<TRIPOS>BOND
    1     7    18  1
    2     8    20  1
    3     6    17  1
    4     7    19  1
    5     7     8  1
    6     6     7  1
    7     8    21  1
    8     8     9  1
    9     5     6  2
   10     9    23  1
   11     9    22  1
   12     2     9  1
   13     5    16  1
   14     4     5  1
   15     1    11  1
   16     1     4  1
   17     1     2  1
   18     1    10  1
   19     4    15  1
   20     3     4  1
   21     2     3  1
   22     2    12  1
   23     3    13  1
   24     3    14  1
