@<TRIPOS>MOLECULE
generated_molecule
14 14 0 0 0
SMALL
NO_CHARGES

@<TRIPOS>ATOM
     1  N1        -2.2379      0.3406     -1.0573  N       1  LIG       0.0000
     2  C2        -1.2385      0.0299     -1.9434  C       1  LIG       0.0000
     3  O3         0.1065     -0.0822     -1.7382  O       1  LIG       0.0000
     4  C4         0.4851     -0.0217     -0.4515  C       1  LIG       0.0000
     5  C5        -0.4642      0.1123      0.4953  C       1  LIG       0.0000
     6  C6         0.2110     -0.2915      1.6441  C       1  LIG       0.0000
     7  C7         1.5617     -0.3521      1.4344  C       1  LIG       0.0000
     8  N8         1.7452     -0.0390      0.1398  N       1  LIG       0.0000
     9  H9        -2.1643      1.0361     -0.3675  H       1  LIG       0.0000
    10  H10       -1.3208     -0.1214     -2.9184  H       1  LIG       0.0000
    11  H11       -1.5025      0.3919      0.3219  H       1  LIG       0.0000
    12  H12       -0.2593     -0.5041      2.6111  H       1  LIG       0.0000
    13  H13        2.3825     -0.5853      2.1171  H       1  LIG       0.0000
    14  H14        2.6956      0.0866     -0.2875  H       1  LIG       0.0000
@<TRIPOS>BOND
    1     2    10  1
    2     6    12  1
    3     1     9  1
    4     5    11  1
    5     5     6  ar
    6     6     7  ar
    7     4     5  ar
    8     1     2  1
    9     2     3  1
   10     7    13  1
   11     7     8  ar
   12     4     8  ar
   13     3     4  1
   14     8    14  1
