@<TRIPOS>MOLECULE
generated_molecule
21 22 0 0 0
SMALL
NO_CHARGES

@<TRIPOS>ATOM
     1  C1        -0.6718      2.5843     -0.1970  C       1  LIG       0.0000
     2  C2        -0.2132      1.1181     -0.1938  C       1  LIG       0.0000
     3  C3         0.9358      0.9294      0.8809  C       1  LIG       0.0000
     4  O4         1.6610     -0.1493      0.4023  O       1  LIG       0.0000
     5  C5         0.6287     -0.0273     -0.4241  C       1  LIG       0.0000
     6  C6         0.3984     -0.9590     -1.5408  C       1  LIG       0.0000
     7  C7         0.1082     -1.3344      0.0286  C       1  LIG       0.0000
     8  C8        -0.9338     -2.4136      0.2870  C       1  LIG       0.0000
     9  O9         0.7185     -1.1375      1.2645  O       1  LIG       0.0000
    10  H10       -1.6777      2.6200      0.2145  H       1  LIG       0.0000
    11  H11       -0.0408      3.2377      0.3974  H       1  LIG       0.0000
    12  H12       -0.6511      2.9999     -1.1969  H       1  LIG       0.0000
    13  H13       -1.0703      0.7616     -0.7703  H       1  LIG       0.0000
    14  H14        0.4011      0.7537      1.8225  H       1  LIG       0.0000
    15  H15        1.7938      1.6138      0.8713  H       1  LIG       0.0000
    16  H16        1.3148     -0.7801     -2.1349  H       1  LIG       0.0000
    17  H17       -0.4368     -1.3063     -2.1359  H       1  LIG       0.0000
    18  H18       -0.7790     -3.2313     -0.4244  H       1  LIG       0.0000
    19  H19       -1.9361     -2.0009      0.2360  H       1  LIG       0.0000
    20  H20       -0.8713     -2.8264      1.2846  H       1  LIG       0.0000
    21  H21        1.3216     -0.4526      1.3284  H       1  LIG       0.0000
@<TRIPOS>BOND
    1     3    14  1
    2     3    15  1
    3     1    11  1
    4     2     3  1
    5     3     4  1
    6     2    13  1
    7     1     2  1
    8     2     5  1
    9     1    10  1
   10     1    12  1
   11     4     5  1
   12     5     7  1
   13     5     6  1
   14     8    19  1
   15     8    18  1
   16     7     8  1
   17     7     9  1
   18     6     7  1
   19     8    20  1
   20     9    21  1
   21     6    17  1
   22     6    16  1
