@<TRIPOS>MOLECULE
generated_molecule
18 21 0 0 0
SMALL
NO_CHARGES

@<TRIPOS>ATOM
     1  O1         0.4062     -1.7249      2.0586  O       1  LIG       0.0000
     2  C2         0.1423     -0.9022      0.9865  C       1  LIG       0.0000
     3  C3        -0.4137      0.5047      0.5785  C       1  LIG       0.0000
     4  C4         0.3974      0.7614     -0.7152  C       1  LIG       0.0000
     5  C5        -0.1544     -0.2736     -1.6372  C       1  LIG       0.0000
     6  C6        -0.8104      0.8258     -0.7368  C       1  LIG       0.0000
     7  N7        -0.5226     -0.2230      0.3390  N       1  LIG       0.0000
     8  C8         0.0774     -1.2881     -0.5200  C       1  LIG       0.0000
     9  C9         0.8572      0.3752      0.6870  C       1  LIG       0.0000
    10  H10        1.0613     -1.4279      2.6665  H       1  LIG       0.0000
    11  H11       -0.0585      1.2952      1.2686  H       1  LIG       0.0000
    12  H12       -1.4845      0.3071      0.3743  H       1  LIG       0.0000
    13  H13        0.8012      1.2739     -1.6094  H       1  LIG       0.0000
    14  H14       -0.0803     -0.5741     -2.6664  H       1  LIG       0.0000
    15  H15       -0.2754      1.7502     -0.5742  H       1  LIG       0.0000
    16  H16       -1.8711      0.9042     -0.9541  H       1  LIG       0.0000
    17  H17        0.3029     -2.2651     -0.8873  H       1  LIG       0.0000
    18  H18        1.6250      0.6812      1.3415  H       1  LIG       0.0000
@<TRIPOS>BOND
    1     3    11  1
    2     3    12  1
    3     3     4  1
    4     2     3  1
    5     4    13  1
    6     4     9  1
    7     4     5  1
    8     9    18  1
    9     1     2  1
   10     1    10  1
   11     2     9  1
   12     2     8  1
   13     7     9  1
   14     5    14  1
   15     5     8  1
   16     5     6  1
   17     7     8  1
   18     8    17  1
   19     6    15  1
   20     6     7  1
   21     6    16  1
