@<TRIPOS>MOLECULE
generated_molecule
17 17 0 0 0
SMALL
NO_CHARGES

@<TRIPOS>ATOM
     1  O1        -0.5845      1.8716      0.8832  O       1  LIG       0.0000
     2  C2         0.3328      0.8761      1.2733  C       1  LIG       0.0000
     3  C3         0.0746     -0.3209      0.3641  C       1  LIG       0.0000
     4  C4         1.3857     -0.6214     -0.3647  C       1  LIG       0.0000
     5  O5         0.7447      0.4155     -1.1552  O       1  LIG       0.0000
     6  C6        -0.4885      0.4945     -1.5600  C       1  LIG       0.0000
     7  O7        -1.5777      0.2174     -1.1163  O       1  LIG       0.0000
     8  C8        -0.9491     -1.4834      0.4809  C       1  LIG       0.0000
     9  O9        -0.9714     -0.5518     -0.5449  O       1  LIG       0.0000
    10  H10       -0.6580      2.0850     -0.0277  H       1  LIG       0.0000
    11  H11        1.3468      1.2703      1.1566  H       1  LIG       0.0000
    12  H12        0.2302      0.5695      2.3011  H       1  LIG       0.0000
    13  H13        1.5911     -1.5386     -0.9118  H       1  LIG       0.0000
    14  H14        2.2541     -0.4122      0.2325  H       1  LIG       0.0000
    15  H15       -0.2993      0.9931     -2.4401  H       1  LIG       0.0000
    16  H16       -2.0335     -1.5336      0.5606  H       1  LIG       0.0000
    17  H17       -0.3981     -2.3313      0.8683  H       1  LIG       0.0000
@<TRIPOS>BOND
    1     4    13  1
    2     4     5  1
    3     5     6  1
    4     4    14  1
    5     3     4  1
    6     2    11  1
    7     6     7  2
    8     6    15  1
    9     1    10  1
   10     2     3  1
   11     3     8  1
   12     3     9  1
   13     1     2  1
   14     2    12  1
   15     8    16  1
   16     8    17  1
   17     8     9  1
