@<TRIPOS>MOLECULE
generated_molecule
20 22 0 0 0
SMALL
NO_CHARGES

@<TRIPOS>ATOM
     1  C1         1.9187      0.9646     -1.1293  C       1  LIG       0.0000
     2  C2         0.6037      0.2784     -0.7156  C       1  LIG       0.0000
     3  O3         1.1163     -0.9723     -1.1283  O       1  LIG       0.0000
     4  C4        -0.0515      0.3029      0.6849  C       1  LIG       0.0000
     5  N5         0.4636      0.0772      2.0999  N       1  LIG       0.0000
     6  C6        -0.9502      0.0164      1.9385  C       1  LIG       0.0000
     7  C7        -1.5807     -0.6526      0.6849  C       1  LIG       0.0000
     8  C8        -0.8904     -0.8400     -0.7612  C       1  LIG       0.0000
     9  C9        -1.2676      0.4944     -0.2386  C       1  LIG       0.0000
    10  H10        2.2475      0.6011     -2.1002  H       1  LIG       0.0000
    11  H11        1.7966      2.0465     -1.1707  H       1  LIG       0.0000
    12  H12        2.7318      0.7722     -0.4288  H       1  LIG       0.0000
    13  H13       -0.3112      0.7104     -1.0814  H       1  LIG       0.0000
    14  H14        1.0078     -1.6870     -0.5613  H       1  LIG       0.0000
    15  H15        0.2499     -0.1792      3.0760  H       1  LIG       0.0000
    16  H16       -1.3521      0.2603      2.9310  H       1  LIG       0.0000
    17  H17       -2.4912     -1.1626      0.9260  H       1  LIG       0.0000
    18  H18       -1.4760     -1.5982     -1.2485  H       1  LIG       0.0000
    19  H19        0.1225     -0.6997     -1.1679  H       1  LIG       0.0000
    20  H20       -1.8875      1.2674     -0.6093  H       1  LIG       0.0000
@<TRIPOS>BOND
    1     5    15  1
    2     1    11  1
    3     1    12  1
    4     5     6  1
    5     4     5  1
    6     6    16  1
    7     1    10  1
    8     1     2  1
    9     4     6  1
   10     6     7  1
   11     8    19  1
   12     2     4  1
   13     4     9  1
   14     2    13  1
   15     2     3  1
   16     7     8  1
   17     7    17  1
   18     7     9  1
   19     8     9  1
   20     8    18  1
   21     9    20  1
   22     3    14  1
