@<TRIPOS>MOLECULE
generated_molecule
18 18 0 0 0
SMALL
NO_CHARGES

@<TRIPOS>ATOM
     1  C1        -0.9902      2.8728     -0.5035  C       1  LIG       0.0000
     2  O2        -0.8172      1.5783     -1.0711  O       1  LIG       0.0000
     3  C3         0.1997      0.6566     -0.8106  C       1  LIG       0.0000
     4  C4         0.4419     -0.8690     -0.3484  C       1  LIG       0.0000
     5  C5         0.0366     -2.2521      0.3134  C       1  LIG       0.0000
     6  O6        -0.1436     -3.3817     -0.5009  O       1  LIG       0.0000
     7  C7         0.4951      0.3205      0.6556  C       1  LIG       0.0000
     8  C8         0.5389     -0.4288      1.9236  C       1  LIG       0.0000
     9  N9         0.5803     -1.0411      2.9291  N       1  LIG       0.0000
    10  H10       -0.4955      3.6134     -1.1434  H       1  LIG       0.0000
    11  H11       -2.0441      3.0200     -0.4287  H       1  LIG       0.0000
    12  H12       -0.5407      2.9965      0.5176  H       1  LIG       0.0000
    13  H13        0.7588      0.9032     -1.6572  H       1  LIG       0.0000
    14  H14        0.9078     -1.1518     -1.2614  H       1  LIG       0.0000
    15  H15        0.8811     -2.4107      0.9899  H       1  LIG       0.0000
    16  H16       -0.9355     -2.2586      0.7793  H       1  LIG       0.0000
    17  H17        0.4921     -3.5539     -1.1844  H       1  LIG       0.0000
    18  H18        0.6347      1.3863      0.8012  H       1  LIG       0.0000
@<TRIPOS>BOND
    1     7    18  1
    2     3    13  1
    3     3     7  1
    4     7     8  1
    5     4     7  1
    6     4    14  1
    7     3     4  1
    8     2     3  1
    9     8     9  3
   10     4     5  1
   11     1    10  1
   12     1    11  1
   13     1     2  1
   14     1    12  1
   15     6    17  1
   16     5     6  1
   17     5    15  1
   18     5    16  1
