@<TRIPOS>MOLECULE
generated_molecule
17 18 0 0 0
SMALL
NO_CHARGES

@<TRIPOS>ATOM
     1  O1        -0.0034      1.4128     -2.1583  O       1  LIG       0.0000
     2  C2        -0.3667      0.3180     -1.2988  C       1  LIG       0.0000
     3  C3         0.3006      0.1972      0.0669  C       1  LIG       0.0000
     4  C4        -0.5471      0.7101      1.3350  C       1  LIG       0.0000
     5  N5         0.8238      0.3759      1.4439  N       1  LIG       0.0000
     6  C6         0.0456     -1.0231     -0.8427  C       1  LIG       0.0000
     7  C7        -0.0532     -1.1983      0.7291  C       1  LIG       0.0000
     8  O8        -0.4599     -2.1635     -0.1695  O       1  LIG       0.0000
     9  H9         0.8371      1.6122     -2.4456  H       1  LIG       0.0000
    10  H10       -1.2881      0.3366     -1.8870  H       1  LIG       0.0000
    11  H11        0.9787     -0.3261     -0.5461  H       1  LIG       0.0000
    12  H12       -1.4086      0.0858      1.4843  H       1  LIG       0.0000
    13  H13       -0.6558      1.7146      1.7514  H       1  LIG       0.0000
    14  H14        1.2158      1.2932      1.7251  H       1  LIG       0.0000
    15  H15        0.5755     -1.2212     -1.7451  H       1  LIG       0.0000
    16  H16       -0.8974     -0.8606      1.3220  H       1  LIG       0.0000
    17  H17        0.9031     -1.2638      1.2354  H       1  LIG       0.0000
@<TRIPOS>BOND
    1     4    12  1
    2     5    14  1
    3     4     5  1
    4     3     5  1
    5     4    13  1
    6     3     4  1
    7     3    11  1
    8     2     3  1
    9     2    10  1
   10     1     2  1
   11     2     6  1
   12     1     9  1
   13     6     8  1
   14     6    15  1
   15     6     7  1
   16     7     8  1
   17     7    17  1
   18     7    16  1
