@<TRIPOS>MOLECULE
generated_molecule
14 15 0 0 0
SMALL
NO_CHARGES

@<TRIPOS>ATOM
     1  N1         1.7157      1.6767     -0.4566  N       1  LIG       0.0000
     2  C2         0.8631      0.6828     -0.2741  C       1  LIG       0.0000
     3  N3         1.6758     -0.4289     -0.4805  N       1  LIG       0.0000
     4  C4         0.3132     -0.8724     -0.0558  C       1  LIG       0.0000
     5  C5        -0.0339     -1.4078      1.2642  C       1  LIG       0.0000
     6  N6        -0.3020     -1.8119      2.3000  N       1  LIG       0.0000
     7  C7        -0.5433      0.3693      0.0968  C       1  LIG       0.0000
     8  C8        -2.1064      0.5358      0.0858  C       1  LIG       0.0000
     9  O9        -1.2813      1.1955      0.9711  O       1  LIG       0.0000
    10  H10        2.5228      1.4430     -1.0345  H       1  LIG       0.0000
    11  H11        2.1865     -0.7677     -1.2843  H       1  LIG       0.0000
    12  H12        0.3130     -1.5116     -0.9506  H       1  LIG       0.0000
    13  H13       -2.7465     -0.2313      0.5009  H       1  LIG       0.0000
    14  H14       -2.5768      1.1283     -0.6825  H       1  LIG       0.0000
@<TRIPOS>BOND
    1     1    10  1
    2     1     2  1
    3     7     9  1
    4     8     9  1
    5     2     7  1
    6     2     3  1
    7     4    12  1
    8     7     8  1
    9     4     7  1
   10     3    11  1
   11     8    14  1
   12     3     4  1
   13     8    13  1
   14     4     5  1
   15     5     6  3
