@<TRIPOS>MOLECULE
generated_molecule
15 15 0 0 0
SMALL
NO_CHARGES

@<TRIPOS>ATOM
     1  C1        -1.5040      0.6860      0.4907  C       1  LIG       0.0000
     2  N2        -0.7634     -0.0937     -0.5172  N       1  LIG       0.0000
     3  C3        -1.3278     -0.4495     -1.7464  C       1  LIG       0.0000
     4  O4        -2.3999     -0.9797     -1.8338  O       1  LIG       0.0000
     5  C5         0.5501     -0.0902     -0.1883  C       1  LIG       0.0000
     6  C6         1.1470     -0.8172      0.8528  C       1  LIG       0.0000
     7  N7         2.3061     -0.1183      1.0259  N       1  LIG       0.0000
     8  N8         2.5999      0.6205     -0.0956  N       1  LIG       0.0000
     9  N9         1.5197      0.5791     -0.8734  N       1  LIG       0.0000
    10  H10       -1.5792      1.7494      0.2482  H       1  LIG       0.0000
    11  H11       -1.0325      0.5825      1.4698  H       1  LIG       0.0000
    12  H12       -2.5181      0.3054      0.5009  H       1  LIG       0.0000
    13  H13       -0.7334     -0.1765     -2.6159  H       1  LIG       0.0000
    14  H14        0.8023     -1.6495      1.4768  H       1  LIG       0.0000
    15  H15        2.9332     -0.1484      1.8055  H       1  LIG       0.0000
@<TRIPOS>BOND
    1     7    15  1
    2     7     8  ar
    3     6     7  ar
    4     6    14  1
    5     8     9  ar
    6     5     6  ar
    7     5     9  ar
    8     2     5  1
    9     1    11  1
   10     1    10  1
   11     1     2  1
   12     2     3  1
   13     1    12  1
   14     3    13  1
   15     3     4  2
