@<TRIPOS>MOLECULE
generated_molecule
22 24 0 0 0
SMALL
NO_CHARGES

@<TRIPOS>ATOM
     1  C1        -1.3487      1.4883      1.1038  C       1  LIG       0.0000
     2  C2        -0.1180      0.5071      1.2322  C       1  LIG       0.0000
     3  N3        -1.3937      0.1096      0.6259  N       1  LIG       0.0000
     4  C4        -2.2220      0.0849     -0.6002  C       1  LIG       0.0000
     5  C5        -0.9985     -0.5091     -1.2742  C       1  LIG       0.0000
     6  C6         0.2904      0.2196     -0.8321  C       1  LIG       0.0000
     7  C7         1.0776     -0.1685      0.4622  C       1  LIG       0.0000
     8  C8         2.6192     -0.5008      0.8007  C       1  LIG       0.0000
     9  C9         1.9313     -1.3508     -0.1815  C       1  LIG       0.0000
    10  H10       -1.7961      1.7453      2.0512  H       1  LIG       0.0000
    11  H11       -1.4602      2.2805      0.3572  H       1  LIG       0.0000
    12  H12        0.1720      0.6445      2.2225  H       1  LIG       0.0000
    13  H13       -2.6023      0.8854     -1.2135  H       1  LIG       0.0000
    14  H14       -3.1062     -0.4358     -0.2720  H       1  LIG       0.0000
    15  H15       -1.5688     -0.4566     -2.2090  H       1  LIG       0.0000
    16  H16       -0.5573     -1.4775     -1.1065  H       1  LIG       0.0000
    17  H17       -0.0468      1.2187     -0.6023  H       1  LIG       0.0000
    18  H18        0.9833      0.0551     -1.6596  H       1  LIG       0.0000
    19  H19        2.6248      0.0687      1.6971  H       1  LIG       0.0000
    20  H20        3.5991     -0.8582      0.4609  H       1  LIG       0.0000
    21  H21        1.5110     -2.3205      0.0954  H       1  LIG       0.0000
    22  H22        2.4097     -1.2300     -1.1580  H       1  LIG       0.0000
@<TRIPOS>BOND
    1     6    17  1
    2     5    16  1
    3     6    18  1
    4     5     6  1
    5     6     7  1
    6     5    15  1
    7     4     5  1
    8     8    19  1
    9     9    22  1
   10     4    14  1
   11     7     8  1
   12     8     9  1
   13     8    20  1
   14     7     9  1
   15     2     7  1
   16     4    13  1
   17     3     4  1
   18     9    21  1
   19     1    11  1
   20     1     2  1
   21     2     3  1
   22     2    12  1
   23     1     3  1
   24     1    10  1
