@<TRIPOS>MOLECULE
generated_molecule
17 17 0 0 0
SMALL
NO_CHARGES

@<TRIPOS>ATOM
     1  C1        -0.5930     -1.6682     -1.2256  C       1  LIG       0.0000
     2  C2        -0.5707     -0.1314     -0.9773  C       1  LIG       0.0000
     3  N3        -0.7841      0.6261      0.1858  N       1  LIG       0.0000
     4  C4        -0.1632      0.4286      1.4076  C       1  LIG       0.0000
     5  C5         0.8022     -0.2247      2.2801  C       1  LIG       0.0000
     6  N6         1.6093     -0.7478      2.9597  N       1  LIG       0.0000
     7  C7         0.0867      0.9431     -0.0488  C       1  LIG       0.0000
     8  N8         1.5048      1.1595     -0.3220  N       1  LIG       0.0000
     9  H9        -1.0144     -2.2861     -0.4338  H       1  LIG       0.0000
    10  H10        0.4163     -2.0652     -1.3305  H       1  LIG       0.0000
    11  H11       -1.1989     -1.8715     -2.1166  H       1  LIG       0.0000
    12  H12       -0.8664      0.1137     -1.9907  H       1  LIG       0.0000
    13  H13       -1.7765      0.6171      0.3987  H       1  LIG       0.0000
    14  H14       -0.8344      0.6296      2.2385  H       1  LIG       0.0000
    15  H15       -0.5877      1.7565     -0.1199  H       1  LIG       0.0000
    16  H16        2.2384      1.2658      0.3584  H       1  LIG       0.0000
    17  H17        1.7318      1.4548     -1.2638  H       1  LIG       0.0000
@<TRIPOS>BOND
    1     3    13  1
    2     1    10  1
    3     2     3  1
    4     3     4  1
    5     1     9  1
    6     1     2  1
    7     1    11  1
    8     2    12  1
    9     2     7  1
   10     4    14  1
   11     4     5  1
   12     4     7  1
   13     5     6  3
   14     7     8  1
   15     7    15  1
   16     8    17  1
   17     8    16  1
