@<TRIPOS>MOLECULE
generated_molecule
19 21 0 0 0
SMALL
NO_CHARGES

@<TRIPOS>ATOM
     1  C1         0.0854     -1.6027      0.8116  C       1  LIG       0.0000
     2  C2         1.1353     -1.2923     -0.3260  C       1  LIG       0.0000
     3  C3         0.9586      0.0455     -1.2162  C       1  LIG       0.0000
     4  O4        -0.2541      0.6553     -1.7628  O       1  LIG       0.0000
     5  C5        -1.0214      1.4528     -0.7803  C       1  LIG       0.0000
     6  C6        -1.1502      0.8708      0.6272  C       1  LIG       0.0000
     7  C7        -0.6447     -0.3682      1.4455  C       1  LIG       0.0000
     8  O8        -0.0041      1.7260      0.4507  O       1  LIG       0.0000
     9  C9         0.4924      1.5066     -0.9154  C       1  LIG       0.0000
    10  H10       -0.7878     -1.8780      1.4147  H       1  LIG       0.0000
    11  H11        0.6445     -2.5237      0.5932  H       1  LIG       0.0000
    12  H12        2.1939     -1.0324     -0.4183  H       1  LIG       0.0000
    13  H13        1.0424     -2.3695     -0.4775  H       1  LIG       0.0000
    14  H14        1.7650     -0.0036     -1.9179  H       1  LIG       0.0000
    15  H15       -1.8514      2.1100     -0.9828  H       1  LIG       0.0000
    16  H16       -2.1779      1.1092      0.8619  H       1  LIG       0.0000
    17  H17       -1.5880     -0.0443      1.9002  H       1  LIG       0.0000
    18  H18        0.1293     -0.6318      2.1352  H       1  LIG       0.0000
    19  H19        1.0329      2.2704     -1.4428  H       1  LIG       0.0000
@<TRIPOS>BOND
    1     1    11  1
    2     2    12  1
    3     7    18  1
    4     2    13  1
    5     1     2  1
    6     1     7  1
    7     1    10  1
    8     2     3  1
    9     7    17  1
   10     6     7  1
   11     6     8  1
   12     8     9  1
   13     6    16  1
   14     5     6  1
   15     3    14  1
   16     3     9  1
   17     3     4  1
   18     9    19  1
   19     5     9  1
   20     4     5  1
   21     5    15  1
