@<TRIPOS>MOLECULE
generated_molecule
19 20 0 0 0
SMALL
NO_CHARGES

@<TRIPOS>ATOM
     1  C1         1.9048      1.2653     -1.3629  C       1  LIG       0.0000
     2  C2         0.6745      0.7912     -0.4736  C       1  LIG       0.0000
     3  C3         0.6623     -0.5107      0.4015  C       1  LIG       0.0000
     4  C4        -0.2294     -0.6570      1.7023  C       1  LIG       0.0000
     5  C5        -1.6856     -0.4816      1.2873  C       1  LIG       0.0000
     6  C6        -1.9303     -0.1716      0.0003  C       1  LIG       0.0000
     7  C7        -0.6745      0.1449     -0.8290  C       1  LIG       0.0000
     8  C8        -0.4552     -1.2842     -0.2716  C       1  LIG       0.0000
     9  O9        -0.8742     -2.3879     -0.3305  O       1  LIG       0.0000
    10  H10        2.8352      1.2239     -0.7954  H       1  LIG       0.0000
    11  H11        2.1110      0.6446     -2.2365  H       1  LIG       0.0000
    12  H12        1.7183      2.2709     -1.7500  H       1  LIG       0.0000
    13  H13        0.5981      1.7961     -0.0811  H       1  LIG       0.0000
    14  H14        1.6703     -0.9363      0.4193  H       1  LIG       0.0000
    15  H15        0.3968     -0.0107      2.3179  H       1  LIG       0.0000
    16  H16       -0.4438     -1.5551      2.2792  H       1  LIG       0.0000
    17  H17       -2.5006     -0.6115      1.9938  H       1  LIG       0.0000
    18  H18       -2.9102     -0.0924     -0.4610  H       1  LIG       0.0000
    19  H19       -0.8674      0.5620     -1.8101  H       1  LIG       0.0000
@<TRIPOS>BOND
    1     4    15  1
    2     4    16  1
    3     3    14  1
    4     3     4  1
    5     4     5  1
    6     3     8  1
    7     2     3  1
    8     1    11  1
    9     5    17  1
   10     5     6  2
   11     8     9  2
   12     7     8  1
   13     1    10  1
   14     1     2  1
   15     2    13  1
   16     2     7  1
   17     1    12  1
   18     6     7  1
   19     6    18  1
   20     7    19  1
