@<TRIPOS>MOLECULE
generated_molecule
14 15 0 0 0
SMALL
NO_CHARGES

@<TRIPOS>ATOM
     1  O1        -0.9378      0.7785      2.4675  O       1  LIG       0.0000
     2  C2        -0.3111      0.3706      1.5365  C       1  LIG       0.0000
     3  O3         0.8631     -0.3111      1.7559  O       1  LIG       0.0000
     4  C4         1.3110     -1.0996      0.6686  C       1  LIG       0.0000
     5  C5         0.5737     -0.3995     -0.5244  C       1  LIG       0.0000
     6  O6         0.1708      0.2344     -1.7213  O       1  LIG       0.0000
     7  C7        -1.0901      0.8274     -1.3870  C       1  LIG       0.0000
     8  C8        -0.6407      0.5372      0.0555  C       1  LIG       0.0000
     9  H9         2.3852     -1.0909      0.5828  H       1  LIG       0.0000
    10  H10        1.0747     -2.1519      0.8352  H       1  LIG       0.0000
    11  H11        1.2642     -1.0235     -1.0680  H       1  LIG       0.0000
    12  H12       -1.9420      0.2877     -1.7962  H       1  LIG       0.0000
    13  H13       -1.2074      1.8692     -1.6523  H       1  LIG       0.0000
    14  H14       -1.5135      1.1715      0.2471  H       1  LIG       0.0000
@<TRIPOS>BOND
    1     8    14  1
    2     4     9  1
    3     5    11  1
    4     2     8  1
    5     5     8  1
    6     7     8  1
    7     1     2  2
    8     2     3  1
    9     4     5  1
   10     5     6  1
   11     3     4  1
   12     4    10  1
   13     7    12  1
   14     6     7  1
   15     7    13  1
