@<TRIPOS>MOLECULE
generated_molecule
19 19 0 0 0
SMALL
NO_CHARGES

@<TRIPOS>ATOM
     1  C1        -0.0094      1.8609      1.8104  C       1  LIG       0.0000
     2  C2        -0.6858      1.9285      0.4157  C       1  LIG       0.0000
     3  C3        -0.1792      0.8275     -0.5937  C       1  LIG       0.0000
     4  O4        -0.8012     -0.4448     -0.4414  O       1  LIG       0.0000
     5  C5        -0.6035     -1.7169      0.0352  C       1  LIG       0.0000
     6  C6         0.6163     -2.3732     -0.5790  C       1  LIG       0.0000
     7  O7         1.1546     -3.4024     -0.2934  O       1  LIG       0.0000
     8  C8         1.0219     -1.3842     -1.6436  C       1  LIG       0.0000
     9  O9         0.7600     -0.1398     -1.0365  O       1  LIG       0.0000
    10  H10        0.9980      2.2795      1.7926  H       1  LIG       0.0000
    11  H11        0.0483      0.8147      2.1247  H       1  LIG       0.0000
    12  H12       -0.5359      2.4044      2.6043  H       1  LIG       0.0000
    13  H13       -0.8850      2.4992     -0.4930  H       1  LIG       0.0000
    14  H14       -1.4857      2.2590      1.1058  H       1  LIG       0.0000
    15  H15        0.0133      1.6013     -1.2383  H       1  LIG       0.0000
    16  H16       -1.5521     -2.1158     -0.2462  H       1  LIG       0.0000
    17  H17       -0.4010     -1.8722      1.0990  H       1  LIG       0.0000
    18  H18        2.0400     -1.7243     -1.8464  H       1  LIG       0.0000
    19  H19        0.4864     -1.3015     -2.5763  H       1  LIG       0.0000
@<TRIPOS>BOND
    1     1    11  1
    2     2    14  1
    3     2    13  1
    4     1     2  1
    5     1    10  1
    6     1    12  1
    7     2     3  1
    8     3     9  1
    9     8     9  1
   10     3    15  1
   11     3     4  1
   12     8    18  1
   13     8    19  1
   14     6     8  1
   15     4     5  1
   16     5     6  1
   17     6     7  2
   18     5    16  1
   19     5    17  1
