@<TRIPOS>MOLECULE
generated_molecule
17 18 0 0 0
SMALL
NO_CHARGES

@<TRIPOS>ATOM
     1  C1         0.7853     -1.4582      0.3754  C       1  LIG       0.0000
     2  N2         0.5355     -0.3823     -0.5824  N       1  LIG       0.0000
     3  C3         1.1207      0.9024     -1.0403  C       1  LIG       0.0000
     4  C4        -0.3065      1.4498     -0.9661  C       1  LIG       0.0000
     5  O5        -0.9242      1.7094      0.3065  O       1  LIG       0.0000
     6  C6        -1.2317      0.4281      0.8424  C       1  LIG       0.0000
     7  C7        -0.6837     -0.6861      1.6453  C       1  LIG       0.0000
     8  N8        -0.2417     -1.5539      2.2729  N       1  LIG       0.0000
     9  C9        -0.8385      0.0711     -0.6060  C       1  LIG       0.0000
    10  H10        0.1291     -2.3104      0.2684  H       1  LIG       0.0000
    11  H11        0.6485     -1.1351      1.4152  H       1  LIG       0.0000
    12  H12        1.7898     -1.7621      0.1426  H       1  LIG       0.0000
    13  H13        1.4767      1.0170     -2.0462  H       1  LIG       0.0000
    14  H14        1.9150      1.1771     -0.3590  H       1  LIG       0.0000
    15  H15       -0.5174      2.1657     -1.7419  H       1  LIG       0.0000
    16  H16       -2.1152      0.7900      1.3411  H       1  LIG       0.0000
    17  H17       -1.5416     -0.4223     -1.2680  H       1  LIG       0.0000
@<TRIPOS>BOND
    1     7     8  3
    2     1    11  1
    3     3    14  1
    4     6     7  1
    5     1     2  1
    6     1    10  1
    7     1    12  1
    8     2     3  1
    9     2     9  1
   10     3    13  1
   11     3     4  1
   12     5     6  1
   13     4     5  1
   14     6     9  1
   15     6    16  1
   16     4     9  1
   17     4    15  1
   18     9    17  1
