@<TRIPOS>MOLECULE
generated_molecule
17 17 0 0 0
SMALL
NO_CHARGES

@<TRIPOS>ATOM
     1  O1        -1.4317     -2.1430      2.8539  O       1  LIG       0.0000
     2  C2        -1.9317     -1.0954      2.4914  C       1  LIG       0.0000
     3  C3        -2.1985     -0.6303      1.0695  C       1  LIG       0.0000
     4  C4        -0.8873     -0.2854      0.5320  C       1  LIG       0.0000
     5  C5         0.1337      0.0338      0.0921  C       1  LIG       0.0000
     6  C6         1.3865      0.4684     -0.4078  C       1  LIG       0.0000
     7  C7         0.8574      1.4751     -1.4702  C       1  LIG       0.0000
     8  O8         1.1987      0.4520     -2.3893  O       1  LIG       0.0000
     9  C9         2.1241     -0.2102     -1.5595  C       1  LIG       0.0000
    10  H10       -2.2924     -0.3759      3.2201  H       1  LIG       0.0000
    11  H11       -2.8083     -1.4565      0.7476  H       1  LIG       0.0000
    12  H12       -2.7332      0.2792      0.7714  H       1  LIG       0.0000
    13  H13        2.1152      0.6149      0.3745  H       1  LIG       0.0000
    14  H14        1.4574      2.3523     -1.6399  H       1  LIG       0.0000
    15  H15       -0.1994      1.7186     -1.3822  H       1  LIG       0.0000
    16  H16        2.0500     -1.2909     -1.6282  H       1  LIG       0.0000
    17  H17        3.1595      0.0936     -1.6753  H       1  LIG       0.0000
@<TRIPOS>BOND
    1     9    17  1
    2     6    13  1
    3     8     9  1
    4     6     9  1
    5     9    16  1
    6     7     8  1
    7     7    14  1
    8     6     7  1
    9     5     6  1
   10     7    15  1
   11     4     5  3
   12     2    10  1
   13     3     4  1
   14     1     2  2
   15     2     3  1
   16     3    12  1
   17     3    11  1
