@<TRIPOS>MOLECULE
generated_molecule
22 23 0 0 0
SMALL
NO_CHARGES

@<TRIPOS>ATOM
     1  C1         2.0980     -0.5346     -0.9622  C       1  LIG       0.0000
     2  C2         0.8804      0.2974     -0.4459  C       1  LIG       0.0000
     3  C3         0.4309     -1.1043      0.0522  C       1  LIG       0.0000
     4  C4        -1.0904     -1.4059      0.0892  C       1  LIG       0.0000
     5  C5        -2.1678     -0.3941     -0.2429  C       1  LIG       0.0000
     6  C6        -1.8110      0.8901     -0.2848  C       1  LIG       0.0000
     7  C7        -0.3439      1.0718      0.0666  C       1  LIG       0.0000
     8  C8         0.2597      1.1071      1.4609  C       1  LIG       0.0000
     9  N9        -0.2078      2.3078      0.7539  N       1  LIG       0.0000
    10  H10        2.6494      0.0722     -1.6899  H       1  LIG       0.0000
    11  H11        2.7402     -0.8459     -0.1479  H       1  LIG       0.0000
    12  H12        1.7880     -1.4641     -1.4248  H       1  LIG       0.0000
    13  H13        1.0274      1.3235     -0.7593  H       1  LIG       0.0000
    14  H14        0.8393     -1.1695      1.0717  H       1  LIG       0.0000
    15  H15        0.8605     -1.7945     -0.6679  H       1  LIG       0.0000
    16  H16       -0.9392     -2.2352     -0.5763  H       1  LIG       0.0000
    17  H17       -1.6307     -1.6270      1.0262  H       1  LIG       0.0000
    18  H18       -3.2023     -0.6505     -0.4651  H       1  LIG       0.0000
    19  H19       -2.4742      1.6891     -0.5721  H       1  LIG       0.0000
    20  H20       -0.3301      0.4526      2.0853  H       1  LIG       0.0000
    21  H21        1.3045      1.3321      1.6978  H       1  LIG       0.0000
    22  H22       -0.6807      2.6822     -0.0646  H       1  LIG       0.0000
@<TRIPOS>BOND
    1     3    15  1
    2     4    16  1
    3     4    17  1
    4     3     4  1
    5     4     5  1
    6     3    14  1
    7     2     3  1
    8     1    11  1
    9     2    13  1
   10     1     2  1
   11     2     7  1
   12     1    10  1
   13     1    12  1
   14     5    18  1
   15     5     6  2
   16     6     7  1
   17     6    19  1
   18     7     9  1
   19     7     8  1
   20     9    22  1
   21     8     9  1
   22     8    21  1
   23     8    20  1
