@<TRIPOS>MOLECULE
generated_molecule
13 13 0 0 0
SMALL
NO_CHARGES

@<TRIPOS>ATOM
     1  N1         2.3515      0.1024     -0.5275  N       1  LIG       0.0000
     2  C2         1.9066      0.7516      0.4912  C       1  LIG       0.0000
     3  N3         0.5328      1.0235      0.7999  N       1  LIG       0.0000
     4  C4        -0.4528      0.2176      0.2146  C       1  LIG       0.0000
     5  C5        -1.3368      0.3542     -0.8827  C       1  LIG       0.0000
     6  N6        -1.9949     -0.7974     -1.0781  N       1  LIG       0.0000
     7  C7        -1.6000     -1.5751     -0.0918  C       1  LIG       0.0000
     8  O8        -0.7177     -0.9713      0.7603  O       1  LIG       0.0000
     9  H9         1.8399     -0.6271     -0.9677  H       1  LIG       0.0000
    10  H10        2.5854      1.1900      1.2302  H       1  LIG       0.0000
    11  H11        0.2595      1.6952      1.4815  H       1  LIG       0.0000
    12  H12       -1.4819      1.2277     -1.5403  H       1  LIG       0.0000
    13  H13       -1.8915     -2.5913      0.1106  H       1  LIG       0.0000
@<TRIPOS>BOND
    1     5    12  1
    2     1     9  1
    3     1     2  2
    4     5     6  ar
    5     4     5  ar
    6     6     7  ar
    7     2    10  1
    8     2     3  1
    9     3     4  1
   10     4     8  ar
   11     7    13  1
   12     7     8  ar
   13     3    11  1
