@<TRIPOS>MOLECULE
generated_molecule
12 12 0 0 0
SMALL
NO_CHARGES

@<TRIPOS>ATOM
     1  O1        -0.3087      0.0980     -1.7738  O       1  LIG       0.0000
     2  C2        -0.6955      0.5289     -0.5211  C       1  LIG       0.0000
     3  C3        -0.9959      1.7762     -1.2147  C       1  LIG       0.0000
     4  N4        -1.2179      2.7608     -1.7919  N       1  LIG       0.0000
     5  C5         0.2235     -0.3418      0.3504  C       1  LIG       0.0000
     6  N6         1.3559     -0.7205     -0.2121  N       1  LIG       0.0000
     7  O7         1.8333     -1.6258      0.7638  O       1  LIG       0.0000
     8  N8         1.1076     -1.7530      1.9617  N       1  LIG       0.0000
     9  C9         0.1552     -0.8722      1.7015  C       1  LIG       0.0000
    10  H10        0.5478      0.2692     -2.0457  H       1  LIG       0.0000
    11  H11       -1.4262      0.5532      0.2920  H       1  LIG       0.0000
    12  H12       -0.5791     -0.6732      2.4899  H       1  LIG       0.0000
@<TRIPOS>BOND
    1     1     2  1
    2     1    10  1
    3     2     3  1
    4     2     5  1
    5     2    11  1
    6     3     4  3
    7     5     6  ar
    8     5     9  ar
    9     6     7  ar
   10     7     8  ar
   11     8     9  ar
   12     9    12  1
