@<TRIPOS>MOLECULE
generated_molecule
22 22 0 0 0
SMALL
NO_CHARGES

@<TRIPOS>ATOM
     1  C1        -0.4681      1.7788     -1.5929  C       1  LIG       0.0000
     2  N2         0.1698      1.4132     -0.3905  N       1  LIG       0.0000
     3  C3         1.3298      1.1318      0.4530  C       1  LIG       0.0000
     4  C4         1.1730     -0.3276      1.0451  C       1  LIG       0.0000
     5  C5         0.3402     -1.6525      1.2977  C       1  LIG       0.0000
     6  C6        -0.8004     -1.7972      0.2572  C       1  LIG       0.0000
     7  C7        -0.7036     -0.5850     -0.6720  C       1  LIG       0.0000
     8  C8        -0.9653      0.7728     -0.0553  C       1  LIG       0.0000
     9  O9        -1.9459      1.2058      0.5421  O       1  LIG       0.0000
    10  H10       -0.9776      0.9529     -2.1093  H       1  LIG       0.0000
    11  H11       -1.1905      2.5487     -1.3224  H       1  LIG       0.0000
    12  H12        0.2492      2.1538     -2.3098  H       1  LIG       0.0000
    13  H13        1.4382      1.9147      1.2045  H       1  LIG       0.0000
    14  H14        2.1744      1.3149     -0.2089  H       1  LIG       0.0000
    15  H15        1.7362     -0.8259      0.2979  H       1  LIG       0.0000
    16  H16        1.2227      0.0764      2.0547  H       1  LIG       0.0000
    17  H17        0.3481     -2.7735      1.2098  H       1  LIG       0.0000
    18  H18        0.5088     -1.5140      2.3619  H       1  LIG       0.0000
    19  H19       -0.8264     -2.5727     -0.5242  H       1  LIG       0.0000
    20  H20       -1.6622     -1.9985      0.9042  H       1  LIG       0.0000
    21  H21        0.3270     -0.5688     -0.9940  H       1  LIG       0.0000
    22  H22       -1.4774     -0.6482     -1.4486  H       1  LIG       0.0000
@<TRIPOS>BOND
    1     5    18  1
    2     4    16  1
    3     6    20  1
    4     4     5  1
    5     5     6  1
    6     5    17  1
    7     4    15  1
    8     6    19  1
    9     3     4  1
   10     6     7  1
   11     1    11  1
   12     2     3  1
   13     3    14  1
   14     3    13  1
   15     7     8  1
   16     7    22  1
   17     7    21  1
   18     1     2  1
   19     2     8  1
   20     1    10  1
   21     1    12  1
   22     8     9  2
