@<TRIPOS>MOLECULE
generated_molecule
13 13 0 0 0
SMALL
NO_CHARGES

@<TRIPOS>ATOM
     1  O1         2.1523     -1.8702     -0.5992  O       1  LIG       0.0000
     2  C2         1.3495     -0.9901     -0.6573  C       1  LIG       0.0000
     3  O3         1.5536      0.2982     -1.1132  O       1  LIG       0.0000
     4  C4         0.4303      1.0303     -0.9884  C       1  LIG       0.0000
     5  C5        -0.3098      0.0485     -0.4482  C       1  LIG       0.0000
     6  C6        -1.7011      0.0842      0.0808  C       1  LIG       0.0000
     7  C7        -0.4946      0.1097      1.1129  C       1  LIG       0.0000
     8  C8         0.3455      0.1164      1.8547  C       1  LIG       0.0000
     9  O9         0.0623     -1.2005     -0.2954  O       1  LIG       0.0000
    10  H10        0.3652      2.0815     -1.2838  H       1  LIG       0.0000
    11  H11       -2.4629      0.8282     -0.0392  H       1  LIG       0.0000
    12  H12       -2.4311     -0.6697     -0.1141  H       1  LIG       0.0000
    13  H13        1.1406      0.1335      2.4905  H       1  LIG       0.0000
@<TRIPOS>BOND
    1     1     2  2
    2     6    12  1
    3     2     9  ar
    4     5     9  ar
    5     2     3  ar
    6     5     6  1
    7     4     5  ar
    8     6    11  1
    9     6     7  1
   10     3     4  ar
   11     4    10  1
   12     7     8  3
   13     8    13  1
