@<TRIPOS>MOLECULE
generated_molecule
19 20 0 0 0
SMALL
NO_CHARGES

@<TRIPOS>ATOM
     1  C1        -1.8501      0.4903     -0.3351  C       1  LIG       0.0000
     2  C2        -0.4410      0.7527      0.4244  C       1  LIG       0.0000
     3  C3        -0.7025     -0.4658     -0.3533  C       1  LIG       0.0000
     4  O4        -1.8178     -0.6806      0.4870  O       1  LIG       0.0000
     5  C5         0.8521     -0.1433     -0.3647  C       1  LIG       0.0000
     6  O6         1.3446      0.4329     -1.5209  O       1  LIG       0.0000
     7  C7         1.7575     -1.1656      0.4381  C       1  LIG       0.0000
     8  O8         1.9750     -0.1778      1.4086  O       1  LIG       0.0000
     9  C9         1.0807      0.7427      0.8362  C       1  LIG       0.0000
    10  H10       -2.4198      1.4301     -0.3520  H       1  LIG       0.0000
    11  H11       -2.4572     -0.2697      0.1563  H       1  LIG       0.0000
    12  H12       -1.6993      0.1375     -1.3501  H       1  LIG       0.0000
    13  H13       -0.1583      1.4855      1.1119  H       1  LIG       0.0000
    14  H14       -0.7855     -0.8944     -1.3292  H       1  LIG       0.0000
    15  H15       -2.2906      0.1147      0.7168  H       1  LIG       0.0000
    16  H16        2.0627      0.0939     -1.9677  H       1  LIG       0.0000
    17  H17        2.5479     -1.4744     -0.2503  H       1  LIG       0.0000
    18  H18        1.3546     -1.9969      1.0258  H       1  LIG       0.0000
    19  H19        1.6470      1.5882      1.2183  H       1  LIG       0.0000
@<TRIPOS>BOND
    1     4    15  1
    2     3     4  1
    3     3    14  1
    4     1    11  1
    5     2     3  1
    6     3     5  1
    7     6    16  1
    8     1     2  1
    9     1    10  1
   10     1    12  1
   11     7    18  1
   12     2    13  1
   13     2     9  1
   14     5     6  1
   15     5     7  1
   16     5     9  1
   17     7    17  1
   18     7     8  1
   19     8     9  1
   20     9    19  1
