@<TRIPOS>MOLECULE
generated_molecule
19 19 0 0 0
SMALL
NO_CHARGES

@<TRIPOS>ATOM
     1  C1        -1.2706      0.6471      2.0568  C       1  LIG       0.0000
     2  O2        -1.2430     -0.1966      0.9512  O       1  LIG       0.0000
     3  C3        -0.4807     -1.1451      0.2483  C       1  LIG       0.0000
     4  C4         0.4826     -0.5889     -0.8337  C       1  LIG       0.0000
     5  C5         0.1984      0.9004     -1.1558  C       1  LIG       0.0000
     6  C6         1.0297      1.1110      0.1363  C       1  LIG       0.0000
     7  O7         1.6191     -0.1329     -0.1824  O       1  LIG       0.0000
     8  C8         0.7599     -1.5114     -2.0191  C       1  LIG       0.0000
     9  O9         0.8926     -1.1643     -3.1801  O       1  LIG       0.0000
    10  H10       -0.2677      0.9350      2.4413  H       1  LIG       0.0000
    11  H11       -1.8039      0.1290      2.8482  H       1  LIG       0.0000
    12  H12       -1.7683      1.5396      1.7242  H       1  LIG       0.0000
    13  H13        0.1464     -1.6850      0.9667  H       1  LIG       0.0000
    14  H14       -1.1942     -1.7703     -0.2495  H       1  LIG       0.0000
    15  H15       -0.8529      1.1771     -1.0982  H       1  LIG       0.0000
    16  H16        0.6698      1.2975     -2.0528  H       1  LIG       0.0000
    17  H17        2.0155      1.3928      0.4609  H       1  LIG       0.0000
    18  H18        0.2311      1.6320      0.6731  H       1  LIG       0.0000
    19  H19        0.8361     -2.5671     -1.7355  H       1  LIG       0.0000
@<TRIPOS>BOND
    1     6    18  1
    2     6    17  1
    3     6     7  1
    4     4     7  1
    5     5     6  1
    6     1    11  1
    7     3    14  1
    8     1    10  1
    9     1     2  1
   10     2     3  1
   11     4     5  1
   12     3     4  1
   13     4     8  1
   14     1    12  1
   15     5    16  1
   16     5    15  1
   17     3    13  1
   18     8    19  1
   19     8     9  2
