@<TRIPOS>MOLECULE
generated_molecule
16 15 0 0 0
SMALL
NO_CHARGES

@<TRIPOS>ATOM
     1  N1         2.4353      1.1952     -0.5387  N       1  LIG       0.0000
     2  C2         1.3368      1.9571     -0.6566  C       1  LIG       0.0000
     3  O3         0.0802      1.4956     -0.8868  O       1  LIG       0.0000
     4  C4        -1.0478      0.8183     -0.3135  C       1  LIG       0.0000
     5  C5        -1.4063     -0.4509     -1.0976  C       1  LIG       0.0000
     6  C6        -0.8046     -1.1908      0.0538  C       1  LIG       0.0000
     7  C7        -0.3474     -1.7219      0.9510  C       1  LIG       0.0000
     8  C8         0.2215     -2.3597      2.0963  C       1  LIG       0.0000
     9  O9        -0.3305     -2.4697      3.1460  O       1  LIG       0.0000
    10  H10        3.2570      1.6232     -0.8956  H       1  LIG       0.0000
    11  H11        1.4938      3.0086     -0.6342  H       1  LIG       0.0000
    12  H12       -1.9631      1.3572     -0.4465  H       1  LIG       0.0000
    13  H13       -0.7497      0.6555      0.7221  H       1  LIG       0.0000
    14  H14       -1.4640     -1.3591     -1.6879  H       1  LIG       0.0000
    15  H15       -1.9394      0.1837     -1.7683  H       1  LIG       0.0000
    16  H16        1.2283     -2.7423      1.9564  H       1  LIG       0.0000
@<TRIPOS>BOND
    1     4    12  1
    2     5    15  1
    3     8    16  1
    4     8     9  2
    5     7     8  1
    6     2    11  1
    7     6     7  3
    8     3     4  1
    9     4     5  1
   10     4    13  1
   11     5     6  1
   12     2     3  1
   13     1     2  1
   14     1    10  1
   15     5    14  1
