@<TRIPOS>MOLECULE
generated_molecule
16 19 0 0 0
SMALL
NO_CHARGES

@<TRIPOS>ATOM
     1  O1        -0.7746      2.1803      0.1105  O       1  LIG       0.0000
     2  C2        -0.0293      1.0078      0.0970  C       1  LIG       0.0000
     3  C3         1.1739      0.4285     -0.6751  C       1  LIG       0.0000
     4  C4         0.7508     -1.0131     -0.3607  C       1  LIG       0.0000
     5  N5         1.0300     -1.2236      1.0380  N       1  LIG       0.0000
     6  C6         0.4147      0.0620      1.2057  C       1  LIG       0.0000
     7  C7        -0.2206     -1.2730      0.5728  C       1  LIG       0.0000
     8  C8        -0.6475     -0.2562     -0.3611  C       1  LIG       0.0000
     9  O9        -1.9267      0.0888     -0.7879  O       1  LIG       0.0000
    10  H10       -1.4807      2.2908      0.6929  H       1  LIG       0.0000
    11  H11        2.1465      0.6911     -0.2206  H       1  LIG       0.0000
    12  H12        1.0417      0.6549     -1.7410  H       1  LIG       0.0000
    13  H13        1.0179     -1.9982     -0.7740  H       1  LIG       0.0000
    14  H14        0.6846      0.6170      2.1028  H       1  LIG       0.0000
    15  H15       -0.7335     -2.2481      0.4850  H       1  LIG       0.0000
    16  H16       -2.4470     -0.0091     -1.3844  H       1  LIG       0.0000
@<TRIPOS>BOND
    1     3    11  1
    2     3    12  1
    3     3     4  1
    4     2     3  1
    5     4    13  1
    6     9    16  1
    7     8     9  1
    8     4     8  1
    9     4     5  1
   10     2     8  1
   11     7     8  1
   12     1     2  1
   13     1    10  1
   14     2     6  1
   15     5     6  1
   16     5     7  1
   17     6     7  1
   18     6    14  1
   19     7    15  1
