@<TRIPOS>MOLECULE
generated_molecule
14 13 0 0 0
SMALL
NO_CHARGES

@<TRIPOS>ATOM
     1  O1         1.8087     -1.9135      1.7675  O       1  LIG       0.0000
     2  C2         1.3974     -0.5616      1.4924  C       1  LIG       0.0000
     3  C3         1.3684      0.2508      0.1870  C       1  LIG       0.0000
     4  C4         0.0246      0.4700     -0.4892  C       1  LIG       0.0000
     5  C5        -1.1134      0.6387     -1.0406  C       1  LIG       0.0000
     6  C6        -2.4490      0.8406     -1.7067  C       1  LIG       0.0000
     7  F7        -2.5171      0.1163     -2.8074  F       1  LIG       0.0000
     8  F8        -3.3402      0.5676     -0.7769  F       1  LIG       0.0000
     9  F9        -2.7616      2.0231     -2.1931  F       1  LIG       0.0000
    10  H10        1.3428     -2.7131      1.8939  H       1  LIG       0.0000
    11  H11        0.3823     -0.7951      1.8178  H       1  LIG       0.0000
    12  H12        2.0712      0.1152      2.0038  H       1  LIG       0.0000
    13  H13        2.2215     -0.3456     -0.1012  H       1  LIG       0.0000
    14  H14        1.5641      1.3067     -0.0473  H       1  LIG       0.0000
@<TRIPOS>BOND
    1     6     8  1
    2     2    11  1
    3     3    14  1
    4     5     6  1
    5     6     7  1
    6     6     9  1
    7     4     5  3
    8     1     2  1
    9     2     3  1
   10     2    12  1
   11     3     4  1
   12     1    10  1
   13     3    13  1
