@<TRIPOS>MOLECULE
generated_molecule
23 23 0 0 0
SMALL
NO_CHARGES

@<TRIPOS>ATOM
     1  C1         0.3382      2.2215      1.9737  C       1  LIG       0.0000
     2  C2         0.7374      1.5501      0.6411  C       1  LIG       0.0000
     3  C3        -0.3293      0.4709      0.2064  C       1  LIG       0.0000
     4  C4         0.0881     -0.0576     -1.1716  C       1  LIG       0.0000
     5  C5         1.6036     -0.1266     -1.5348  C       1  LIG       0.0000
     6  C6        -0.7329     -0.9997     -0.2410  C       1  LIG       0.0000
     7  C7        -1.6300     -1.8354     -1.1823  C       1  LIG       0.0000
     8  C8        -0.6490     -1.8017      1.0581  C       1  LIG       0.0000
     9  O9        -0.5481     -1.3084      2.1622  O       1  LIG       0.0000
    10  H10        1.1911      2.7184      2.4410  H       1  LIG       0.0000
    11  H11       -0.4446      2.9640      1.8183  H       1  LIG       0.0000
    12  H12       -0.0526      1.4807      2.6719  H       1  LIG       0.0000
    13  H13        0.8515      2.4232      0.0010  H       1  LIG       0.0000
    14  H14        1.6932      1.0098      0.6206  H       1  LIG       0.0000
    15  H15       -1.2709      0.5323      0.7254  H       1  LIG       0.0000
    16  H16       -0.5617      0.2278     -1.9962  H       1  LIG       0.0000
    17  H17        2.1371     -0.9380     -1.0362  H       1  LIG       0.0000
    18  H18        2.1160      0.7990     -1.2620  H       1  LIG       0.0000
    19  H19        1.7322     -0.2906     -2.6122  H       1  LIG       0.0000
    20  H20       -2.6786     -1.6521     -0.9564  H       1  LIG       0.0000
    21  H21       -1.4325     -2.8956     -1.0518  H       1  LIG       0.0000
    22  H22       -1.4599     -1.5954     -2.2274  H       1  LIG       0.0000
    23  H23       -0.6982     -2.8966      0.9521  H       1  LIG       0.0000
@<TRIPOS>BOND
    1     5    19  1
    2     5    18  1
    3     5    17  1
    4     4     5  1
    5     1    11  1
    6     1    10  1
    7     1    12  1
    8     1     2  1
    9     4    16  1
   10     3     4  1
   11     4     6  1
   12     2    13  1
   13     2     3  1
   14     2    14  1
   15     7    20  1
   16     3    15  1
   17     3     6  1
   18     6     7  1
   19     6     8  1
   20     7    22  1
   21     7    21  1
   22     8     9  2
   23     8    23  1
