@<TRIPOS>MOLECULE
generated_molecule
17 20 0 0 0
SMALL
NO_CHARGES

@<TRIPOS>ATOM
     1  C1        -0.2450     -1.4659      1.0025  C       1  LIG       0.0000
     2  C2        -1.5443     -1.1109      0.2783  C       1  LIG       0.0000
     3  C3        -1.3862      0.0916     -0.2428  C       1  LIG       0.0000
     4  C4         0.0802      0.1090      0.1781  C       1  LIG       0.0000
     5  C5         1.5970      0.4474     -0.2577  C       1  LIG       0.0000
     6  N6         0.8527      0.1209     -1.4673  N       1  LIG       0.0000
     7  C7        -0.0359      1.1508     -0.8212  C       1  LIG       0.0000
     8  C8         0.7451      1.1831      0.6021  C       1  LIG       0.0000
     9  N9         0.4497     -0.1259      1.3744  N       1  LIG       0.0000
    10  H10       -0.0948     -1.7685      2.0114  H       1  LIG       0.0000
    11  H11       -0.0093     -2.2746      0.3136  H       1  LIG       0.0000
    12  H12       -2.4747     -1.6750      0.1850  H       1  LIG       0.0000
    13  H13       -2.1405      0.6974     -0.7307  H       1  LIG       0.0000
    14  H14        2.6239      0.5610      0.0061  H       1  LIG       0.0000
    15  H15        1.2948      0.4195     -2.3427  H       1  LIG       0.0000
    16  H16       -0.9028      1.6303     -1.2357  H       1  LIG       0.0000
    17  H17        1.1900      2.0095      1.1466  H       1  LIG       0.0000
@<TRIPOS>BOND
    1     1    11  1
    2     2    12  1
    3     1     9  1
    4     1     2  1
    5     1    10  1
    6     4     9  1
    7     8     9  1
    8     2     3  2
    9     5    14  1
   10     3     4  1
   11     3    13  1
   12     4     5  1
   13     4     7  1
   14     8    17  1
   15     5     8  1
   16     7     8  1
   17     5     6  1
   18     6     7  1
   19     7    16  1
   20     6    15  1
