@<TRIPOS>MOLECULE
generated_molecule
16 16 0 0 0
SMALL
NO_CHARGES

@<TRIPOS>ATOM
     1  N1        -1.2017     -1.9814      0.3348  N       1  LIG       0.0000
     2  H2         2.2034      0.0816     -0.4300  H       1  LIG       0.0000
     3  H3        -1.5620     -2.9156      0.2680  H       1  LIG       0.0000
     4  H4        -0.9153     -1.6456      1.2375  H       1  LIG       0.0000
     5  C5        -0.9662     -1.1688     -0.8507  C       1  LIG       0.0000
     6  C6        -0.0468      0.0473     -0.5633  C       1  LIG       0.0000
     7  N7        -0.6415      1.3941     -0.6552  N       1  LIG       0.0000
     8  C8         0.1624      1.1435      0.5574  C       1  LIG       0.0000
     9  C9         1.5999      1.4151      0.9358  C       1  LIG       0.0000
    10  O10        1.9433      2.0630      1.9029  O       1  LIG       0.0000
    11  O11        2.4741      0.8091      0.0757  O       1  LIG       0.0000
    12  H12       -0.4525     -1.7069     -1.6471  H       1  LIG       0.0000
    13  H13       -1.9731     -0.9464     -1.2269  H       1  LIG       0.0000
    14  H14        0.9378     -0.1587     -0.8715  H       1  LIG       0.0000
    15  H15       -1.1335      2.1901     -0.5064  H       1  LIG       0.0000
    16  H16       -0.4282      1.3795      1.4389  H       1  LIG       0.0000
@<TRIPOS>BOND
    1     1     4  1
    2     7    15  1
    3     1     3  1
    4     5    13  1
    5     1     5  1
    6     6     7  1
    7     7     8  1
    8     5     6  1
    9     5    12  1
   10     6    14  1
   11     6     8  1
   12     2    11  1
   13     8    16  1
   14     8     9  1
   15     9    11  1
   16     9    10  2
