@<TRIPOS>MOLECULE
generated_molecule
16 16 0 0 0
SMALL
NO_CHARGES

@<TRIPOS>ATOM
     1  C1         0.0042     -1.1637     -1.7323  C       1  LIG       0.0000
     2  N2        -0.7013     -0.5098     -0.6560  N       1  LIG       0.0000
     3  C3        -1.6312      0.4948     -0.6646  C       1  LIG       0.0000
     4  N4        -1.2297      1.1347      0.3658  N       1  LIG       0.0000
     5  C5        -0.2554      0.2412      0.5404  C       1  LIG       0.0000
     6  C6        -0.5555     -1.0637      0.5189  C       1  LIG       0.0000
     7  C7         1.0920      0.5424      0.9880  C       1  LIG       0.0000
     8  N8         1.1282      1.5868      1.9566  N       1  LIG       0.0000
     9  O9         2.0552     -0.0101      0.5584  O       1  LIG       0.0000
    10  H10        0.0029     -0.3632     -2.4950  H       1  LIG       0.0000
    11  H11        0.9610     -1.4982     -1.3890  H       1  LIG       0.0000
    12  H12       -0.4669     -2.0456     -2.1144  H       1  LIG       0.0000
    13  H13       -2.4098      0.8456     -1.3729  H       1  LIG       0.0000
    14  H14       -0.4486     -2.0040      0.9878  H       1  LIG       0.0000
    15  H15        2.0284      2.0389      1.8493  H       1  LIG       0.0000
    16  H16        0.4266      1.7738      2.6590  H       1  LIG       0.0000
@<TRIPOS>BOND
    1     3    13  1
    2     1    11  1
    3     3     4  ar
    4     2     3  ar
    5     4     5  ar
    6     8    15  1
    7     1     2  1
    8     1    10  1
    9     1    12  1
   10     2     6  ar
   11     5     6  ar
   12     5     7  1
   13     8    16  1
   14     7     8  1
   15     6    14  1
   16     7     9  2
