@<TRIPOS>MOLECULE
generated_molecule
21 20 0 0 0
SMALL
NO_CHARGES

@<TRIPOS>ATOM
     1  C1         1.9567      0.4413      0.5450  C       1  LIG       0.0000
     2  C2         0.7311     -0.4852      0.2747  C       1  LIG       0.0000
     3  C3        -0.6452      0.1548      0.6025  C       1  LIG       0.0000
     4  O4        -1.0020      0.9285      1.7614  O       1  LIG       0.0000
     5  C5        -0.7304      1.1424     -0.6024  C       1  LIG       0.0000
     6  C6        -0.5226      0.0630     -1.6997  C       1  LIG       0.0000
     7  O7        -0.8460     -1.1525     -0.9986  O       1  LIG       0.0000
     8  C8        -0.6852     -1.7347      0.2037  C       1  LIG       0.0000
     9  O9        -0.1192     -2.7653      0.3755  O       1  LIG       0.0000
    10  H10        1.6833      1.2651      1.1986  H       1  LIG       0.0000
    11  H11        2.3551      0.8761     -0.3793  H       1  LIG       0.0000
    12  H12        2.7790     -0.0967      1.0271  H       1  LIG       0.0000
    13  H13        1.2876     -0.7556     -0.6276  H       1  LIG       0.0000
    14  H14        0.2597     -1.3982      0.6851  H       1  LIG       0.0000
    15  H15       -1.3449     -0.6671      0.7268  H       1  LIG       0.0000
    16  H16       -1.6717      1.5370      1.7991  H       1  LIG       0.0000
    17  H17       -1.5765      1.6714     -1.0551  H       1  LIG       0.0000
    18  H18       -0.0670      1.9143     -0.2229  H       1  LIG       0.0000
    19  H19        0.4914     -0.0341     -2.0906  H       1  LIG       0.0000
    20  H20       -1.1714      0.2710     -2.5342  H       1  LIG       0.0000
    21  H21       -1.1620     -1.1755      1.0109  H       1  LIG       0.0000
@<TRIPOS>BOND
    1     6    19  1
    2     8     9  2
    3     8    21  1
    4     7     8  1
    5     6     7  1
    6     6    20  1
    7     5     6  1
    8     3    15  1
    9     5    18  1
   10     3     5  1
   11     5    17  1
   12     3     4  1
   13     4    16  1
   14     2     3  1
   15     1    11  1
   16     2    14  1
   17     1     2  1
   18     2    13  1
   19     1    10  1
   20     1    12  1
