@<TRIPOS>MOLECULE
generated_molecule
18 19 0 0 0
SMALL
NO_CHARGES

@<TRIPOS>ATOM
     1  O1         1.5918      2.0251      1.8061  O       1  LIG       0.0000
     2  C2         0.8042      1.3110      1.2356  C       1  LIG       0.0000
     3  C3         0.1641      0.0769      1.8670  C       1  LIG       0.0000
     4  C4        -0.3021     -0.9732      0.7537  C       1  LIG       0.0000
     5  C5        -0.3661     -1.5970     -0.6954  C       1  LIG       0.0000
     6  C6         0.0248     -0.4400     -1.6538  C       1  LIG       0.0000
     7  N7        -0.8883     -0.4817     -0.5386  N       1  LIG       0.0000
     8  C8        -0.5837      0.8833     -0.8208  C       1  LIG       0.0000
     9  C9         0.4013      1.5777     -0.1872  C       1  LIG       0.0000
    10  H10        0.1184     -0.7760      2.5236  H       1  LIG       0.0000
    11  H11        0.1013      0.9282      2.5675  H       1  LIG       0.0000
    12  H12       -0.3937     -1.7447      1.4892  H       1  LIG       0.0000
    13  H13        0.3782     -2.2048     -1.2555  H       1  LIG       0.0000
    14  H14       -1.3438     -1.9888     -0.5016  H       1  LIG       0.0000
    15  H15       -0.0660      0.5907     -1.9616  H       1  LIG       0.0000
    16  H16        0.6779     -0.8948     -2.3865  H       1  LIG       0.0000
    17  H17       -1.2467      1.3177     -1.5848  H       1  LIG       0.0000
    18  H18        0.9285      2.3906     -0.6571  H       1  LIG       0.0000
@<TRIPOS>BOND
    1     4    12  1
    2     5    13  1
    3     4     7  1
    4     4     5  1
    5     3     4  1
    6     3    10  1
    7     7     8  1
    8     6     7  1
    9     6    15  1
   10     1     2  2
   11     2     9  1
   12     2     3  1
   13     5     6  1
   14     5    14  1
   15     8     9  2
   16     9    18  1
   17     8    17  1
   18     3    11  1
   19     6    16  1
