@<TRIPOS>MOLECULE
generated_molecule
17 19 0 0 0
SMALL
NO_CHARGES

@<TRIPOS>ATOM
     1  C1         0.6409      0.7065      1.9757  C       1  LIG       0.0000
     2  C2         0.0617      0.4072      0.6003  C       1  LIG       0.0000
     3  C3         0.7790      1.0881     -0.5608  C       1  LIG       0.0000
     4  C4        -0.0096      0.1166     -1.4501  C       1  LIG       0.0000
     5  N5        -0.2375     -1.3684     -1.3710  N       1  LIG       0.0000
     6  C6        -0.9410     -1.8300     -0.2434  C       1  LIG       0.0000
     7  O7        -1.4605     -2.9008     -0.0421  O       1  LIG       0.0000
     8  N8        -0.8380     -0.7555      0.6685  N       1  LIG       0.0000
     9  C9        -1.1032      0.1693     -0.4070  C       1  LIG       0.0000
    10  H10        1.0033      1.7156      2.0686  H       1  LIG       0.0000
    11  H11        1.4870      0.0503      2.1472  H       1  LIG       0.0000
    12  H12       -0.1329      0.5876      2.7285  H       1  LIG       0.0000
    13  H13        0.8534      1.8005     -1.3848  H       1  LIG       0.0000
    14  H14        1.5700      1.3289      0.1492  H       1  LIG       0.0000
    15  H15        0.1219      0.5263     -2.4447  H       1  LIG       0.0000
    16  H16        0.3405     -2.0768     -1.8040  H       1  LIG       0.0000
    17  H17       -2.1348      0.4346     -0.6298  H       1  LIG       0.0000
@<TRIPOS>BOND
    1     3    13  1
    2     4    15  1
    3     3    14  1
    4     3     4  1
    5     2     3  1
    6     1    11  1
    7     4     9  1
    8     4     5  1
    9     2     9  1
   10     1     2  1
   11     2     8  1
   12     9    17  1
   13     8     9  1
   14     1    10  1
   15     1    12  1
   16     5    16  1
   17     5     6  1
   18     6     8  1
   19     6     7  2
