@<TRIPOS>MOLECULE
generated_molecule
14 14 0 0 0
SMALL
NO_CHARGES

@<TRIPOS>ATOM
     1  C1         0.0417      1.4611     -1.8840  C       1  LIG       0.0000
     2  O2         0.2909      0.2269     -1.2412  O       1  LIG       0.0000
     3  C3        -0.1291     -0.3463     -0.0693  C       1  LIG       0.0000
     4  C4         0.6377     -0.4672      1.0406  C       1  LIG       0.0000
     5  O5         1.9681     -0.5301      0.9700  O       1  LIG       0.0000
     6  N6        -0.2511     -0.4278      2.0915  N       1  LIG       0.0000
     7  N7        -1.3918     -1.0337      1.7387  N       1  LIG       0.0000
     8  C8        -1.2251     -1.1391      0.4216  C       1  LIG       0.0000
     9  H9         0.3138      1.2263     -2.8844  H       1  LIG       0.0000
    10  H10        0.6677      2.2629     -1.4747  H       1  LIG       0.0000
    11  H11       -1.0028      1.7993     -1.8004  H       1  LIG       0.0000
    12  H12        2.1611     -1.2034      0.2092  H       1  LIG       0.0000
    13  H13       -0.1350     -0.1133      3.0647  H       1  LIG       0.0000
    14  H14       -1.9461     -1.7155     -0.1824  H       1  LIG       0.0000
@<TRIPOS>BOND
    1     1    10  1
    2     5    12  1
    3     1     2  1
    4     2     3  1
    5     1     9  1
    6     1    11  1
    7     4     5  1
    8     3     4  ar
    9     3     8  ar
   10     4     6  ar
   11     8    14  1
   12     7     8  ar
   13     6    13  1
   14     6     7  ar
