@<TRIPOS>MOLECULE
generated_molecule
18 19 0 0 0
SMALL
NO_CHARGES

@<TRIPOS>ATOM
     1  N1         0.6758     -2.0839      0.9229  N       1  LIG       0.0000
     2  C2         0.7783     -0.9081      0.0691  C       1  LIG       0.0000
     3  C3         0.3243      0.5056      0.5889  C       1  LIG       0.0000
     4  C4         1.1186      1.2833     -0.4723  C       1  LIG       0.0000
     5  C5         0.0605      0.1889     -0.5787  C       1  LIG       0.0000
     6  C6        -1.4277      0.4289     -0.3145  C       1  LIG       0.0000
     7  N7        -0.9268     -0.4761     -1.3570  N       1  LIG       0.0000
     8  C8        -0.6613      1.6281      0.3799  C       1  LIG       0.0000
     9  N9        -1.4252      2.4721      0.2130  N       1  LIG       0.0000
    10  H10        0.2289     -2.0658      1.8100  H       1  LIG       0.0000
    11  H11        1.0799     -2.9114      0.4514  H       1  LIG       0.0000
    12  H12        1.4810     -1.3358     -0.6515  H       1  LIG       0.0000
    13  H13        0.5070      0.0663      1.5459  H       1  LIG       0.0000
    14  H14        0.8542      2.1627     -0.9981  H       1  LIG       0.0000
    15  H15        2.1700      1.1844     -0.3650  H       1  LIG       0.0000
    16  H16       -1.7289      1.4370     -0.5270  H       1  LIG       0.0000
    17  H17       -2.0250     -0.1094      0.4136  H       1  LIG       0.0000
    18  H18       -1.0835     -1.4668     -1.1305  H       1  LIG       0.0000
@<TRIPOS>BOND
    1     7    18  1
    2     1    10  1
    3     6     7  1
    4     5     7  1
    5     6    17  1
    6     2    12  1
    7     5     6  1
    8     6    16  1
    9     1    11  1
   10     1     2  1
   11     2     5  1
   12     2     3  1
   13     4     5  1
   14     4    14  1
   15     3     4  1
   16     4    15  1
   17     3     8  1
   18     3    13  1
   19     8     9  3
