@<TRIPOS>MOLECULE
generated_molecule
15 16 0 0 0
SMALL
NO_CHARGES

@<TRIPOS>ATOM
     1  O1        -2.5600     -0.1642     -1.2406  O       1  LIG       0.0000
     2  C2        -1.4080     -0.1176     -0.9516  C       1  LIG       0.0000
     3  C3        -0.2370      0.5220     -1.7241  C       1  LIG       0.0000
     4  C4         0.5503     -0.2250     -0.6071  C       1  LIG       0.0000
     5  C5         1.4497      0.3682      0.4794  C       1  LIG       0.0000
     6  C6         0.9577      0.3400      1.7292  C       1  LIG       0.0000
     7  C7        -0.3492     -0.3632      1.7277  C       1  LIG       0.0000
     8  O8        -0.9639     -0.6093      2.7252  O       1  LIG       0.0000
     9  C9        -0.7008     -0.6739      0.2691  C       1  LIG       0.0000
    10  H10        0.4616      0.3860     -2.5352  H       1  LIG       0.0000
    11  H11       -0.7699      1.4356     -1.9800  H       1  LIG       0.0000
    12  H12        1.0595     -0.8643     -1.3326  H       1  LIG       0.0000
    13  H13        2.4409      0.7812      0.3028  H       1  LIG       0.0000
    14  H14        1.3890      0.7317      2.6367  H       1  LIG       0.0000
    15  H15       -1.3200     -1.5472      0.5011  H       1  LIG       0.0000
@<TRIPOS>BOND
    1     9    15  1
    2     1     2  2
    3     3    10  1
    4     2     9  1
    5     2     3  1
    6     4     9  1
    7     7     9  1
    8     4    12  1
    9     3     4  1
   10     3    11  1
   11     4     5  1
   12     7     8  2
   13     6     7  1
   14     5     6  2
   15     5    13  1
   16     6    14  1
