@<TRIPOS>MOLECULE
generated_molecule
20 20 0 0 0
SMALL
NO_CHARGES

@<TRIPOS>ATOM
     1  C1        -1.5497      0.0559      1.7333  C       1  LIG       0.0000
     2  C2        -0.8625      0.0567      0.3279  C       1  LIG       0.0000
     3  C3         0.4417      0.3766      1.1243  C       1  LIG       0.0000
     4  O4         1.2098      1.3734      0.3716  O       1  LIG       0.0000
     5  C5        -0.4260      0.1481     -1.1546  C       1  LIG       0.0000
     6  C6         0.0879     -0.7670     -2.2821  C       1  LIG       0.0000
     7  C7         1.0870     -0.2086     -1.2719  C       1  LIG       0.0000
     8  O8         1.6617     -0.8355     -0.1539  O       1  LIG       0.0000
     9  H9        -1.1870      0.8926      2.3322  H       1  LIG       0.0000
    10  H10       -2.6301      0.1461      1.6619  H       1  LIG       0.0000
    11  H11       -1.3341     -0.8700      2.2632  H       1  LIG       0.0000
    12  H12       -1.7159     -0.2342     -0.2495  H       1  LIG       0.0000
    13  H13        1.0941     -0.4980      1.2553  H       1  LIG       0.0000
    14  H14        0.1785      0.7454      2.1287  H       1  LIG       0.0000
    15  H15        1.7137      2.0693      0.5455  H       1  LIG       0.0000
    16  H16       -1.0391      0.8343     -1.7297  H       1  LIG       0.0000
    17  H17        0.0351     -0.3076     -3.2657  H       1  LIG       0.0000
    18  H18       -0.0860     -1.8507     -2.2498  H       1  LIG       0.0000
    19  H19        1.8243      0.3978     -1.7306  H       1  LIG       0.0000
    20  H20        1.4964     -1.5246      0.3440  H       1  LIG       0.0000
@<TRIPOS>BOND
    1     4    15  1
    2     3     4  1
    3     3    14  1
    4     3    13  1
    5     2     3  1
    6     1    10  1
    7     2    12  1
    8     1     2  1
    9     2     5  1
   10     1     9  1
   11     1    11  1
   12     8    20  1
   13     7     8  1
   14     5    16  1
   15     5     7  1
   16     5     6  1
   17     7    19  1
   18     6     7  1
   19     6    18  1
   20     6    17  1
