@<TRIPOS>MOLECULE
generated_molecule
16 16 0 0 0
SMALL
NO_CHARGES

@<TRIPOS>ATOM
     1  C1        -0.5327      1.3828      1.4447  C       1  LIG       0.0000
     2  C2         0.8233      0.6936      1.1067  C       1  LIG       0.0000
     3  C3         0.3135     -0.1805     -0.0706  C       1  LIG       0.0000
     4  C4         0.4928     -0.3336     -1.4832  C       1  LIG       0.0000
     5  O5         1.5504      0.0640     -2.2764  O       1  LIG       0.0000
     6  N6        -0.5125     -0.9009     -2.1315  N       1  LIG       0.0000
     7  C7        -1.1905     -1.3945     -1.1238  C       1  LIG       0.0000
     8  N8        -0.5321     -1.2188      0.0723  N       1  LIG       0.0000
     9  H9        -0.5007      1.9212      2.3971  H       1  LIG       0.0000
    10  H10       -0.7939      2.1154      0.6719  H       1  LIG       0.0000
    11  H11       -1.3428      0.6373      1.5270  H       1  LIG       0.0000
    12  H12        1.3070      0.3044      2.0049  H       1  LIG       0.0000
    13  H13        1.7404      1.2224      0.8336  H       1  LIG       0.0000
    14  H14        1.9888     -0.6738     -2.7273  H       1  LIG       0.0000
    15  H15       -2.1218     -1.9486     -1.2147  H       1  LIG       0.0000
    16  H16       -0.6892     -1.6905      0.9693  H       1  LIG       0.0000
@<TRIPOS>BOND
    1     5    14  1
    2     4     5  1
    3     4     6  ar
    4     3     4  ar
    5     2    12  1
    6     6     7  ar
    7     1    10  1
    8     2     3  1
    9     3     8  ar
   10     1     2  1
   11     2    13  1
   12     1     9  1
   13     1    11  1
   14     7     8  ar
   15     7    15  1
   16     8    16  1
