@<TRIPOS>MOLECULE
generated_molecule
18 21 0 0 0
SMALL
NO_CHARGES

@<TRIPOS>ATOM
     1  C1        -1.8018      0.3394     -1.0592  C       1  LIG       0.0000
     2  C2        -0.5144     -0.0113     -0.3158  C       1  LIG       0.0000
     3  C3         0.5860      0.9991      0.1187  C       1  LIG       0.0000
     4  C4         1.3929      0.5046     -1.1227  C       1  LIG       0.0000
     5  N5         0.8625     -0.5472     -0.2366  N       1  LIG       0.0000
     6  C6         0.7701     -1.0288      1.1838  C       1  LIG       0.0000
     7  C7         0.6102      0.3957      1.5695  C       1  LIG       0.0000
     8  O8         0.0051     -0.9222      1.8096  O       1  LIG       0.0000
     9  C9        -0.5228     -1.3078      0.4752  C       1  LIG       0.0000
    10  H10       -1.8349     -0.1115     -2.0420  H       1  LIG       0.0000
    11  H11       -2.6536     -0.0212     -0.4961  H       1  LIG       0.0000
    12  H12       -1.8723      1.4136     -1.1822  H       1  LIG       0.0000
    13  H13        0.6148      2.0871     -0.0095  H       1  LIG       0.0000
    14  H14        1.6718     -0.2390     -1.8466  H       1  LIG       0.0000
    15  H15        1.8035      1.4244     -1.4734  H       1  LIG       0.0000
    16  H16        1.1290     -1.6769      1.9376  H       1  LIG       0.0000
    17  H17        0.8316      0.8799      2.5156  H       1  LIG       0.0000
    18  H18       -1.0778     -2.1778      0.1742  H       1  LIG       0.0000
@<TRIPOS>BOND
    1     3    13  1
    2     7    17  1
    3     3     7  1
    4     3     4  1
    5     2     3  1
    6     7     8  1
    7     6     7  1
    8     8     9  1
    9     1    11  1
   10     4    15  1
   11     4    14  1
   12     4     5  1
   13     1    10  1
   14     1     2  1
   15     2     9  1
   16     2     5  1
   17     1    12  1
   18     6     9  1
   19     9    18  1
   20     5     6  1
   21     6    16  1
