@<TRIPOS>MOLECULE
generated_molecule
16 16 0 0 0
SMALL
NO_CHARGES

@<TRIPOS>ATOM
     1  C1         1.7254      1.7101     -0.6177  C       1  LIG       0.0000
     2  C2         0.8316      0.5670     -0.3122  C       1  LIG       0.0000
     3  N3        -0.3222      0.6377     -0.9037  N       1  LIG       0.0000
     4  C4        -0.8656     -0.3016     -0.1421  C       1  LIG       0.0000
     5  C5        -2.3605     -0.3232     -0.3067  C       1  LIG       0.0000
     6  C6        -0.0771     -1.1017      0.6415  C       1  LIG       0.0000
     7  O7        -0.2417     -2.2063      1.4916  O       1  LIG       0.0000
     8  N8         1.1518     -0.5286      0.4645  N       1  LIG       0.0000
     9  H9         2.7661      1.3970     -0.6821  H       1  LIG       0.0000
    10  H10        1.5166      2.1572     -1.5763  H       1  LIG       0.0000
    11  H11        1.5382      2.4348      0.1818  H       1  LIG       0.0000
    12  H12       -2.6354      0.2529     -1.1797  H       1  LIG       0.0000
    13  H13       -2.7623     -1.3209     -0.4661  H       1  LIG       0.0000
    14  H14       -2.7843      0.0873      0.6127  H       1  LIG       0.0000
    15  H15        0.4719     -2.6020      1.9053  H       1  LIG       0.0000
    16  H16        2.0476     -0.8596      0.8891  H       1  LIG       0.0000
@<TRIPOS>BOND
    1     5    14  1
    2     5    13  1
    3     5    12  1
    4     4     5  1
    5     3     4  ar
    6     2     3  ar
    7     1    10  1
    8     4     6  ar
    9     1     2  1
   10     2     8  ar
   11     1     9  1
   12     1    11  1
   13     6     8  ar
   14     6     7  1
   15     8    16  1
   16     7    15  1
