@<TRIPOS>MOLECULE
generated_molecule
20 21 0 0 0
SMALL
NO_CHARGES

@<TRIPOS>ATOM
     1  C1        -1.3070     -0.7122      1.4298  C       1  LIG       0.0000
     2  C2        -0.8715     -0.0504      0.1219  C       1  LIG       0.0000
     3  C3        -1.3174      0.6620     -0.9477  C       1  LIG       0.0000
     4  C4        -0.1787      1.5937     -1.2602  C       1  LIG       0.0000
     5  C5         0.5216      1.2647      0.0849  C       1  LIG       0.0000
     6  C6         1.5809      0.4320      0.7584  C       1  LIG       0.0000
     7  C7         0.5644     -0.3256     -0.0566  C       1  LIG       0.0000
     8  C8         0.7511     -1.7004     -0.7054  C       1  LIG       0.0000
     9  H9        -2.4046     -0.6972      1.4627  H       1  LIG       0.0000
    10  H10       -0.9441     -0.1873      2.3095  H       1  LIG       0.0000
    11  H11       -0.9470     -1.7408      1.4996  H       1  LIG       0.0000
    12  H12       -2.2581      0.6771     -1.4881  H       1  LIG       0.0000
    13  H13       -0.3601      1.3959     -2.3353  H       1  LIG       0.0000
    14  H14        0.1957      2.5934     -1.2171  H       1  LIG       0.0000
    15  H15        0.4631      2.1062      0.7671  H       1  LIG       0.0000
    16  H16        2.1895     -0.4766      0.8800  H       1  LIG       0.0000
    17  H17        1.9158      1.3140      1.3104  H       1  LIG       0.0000
    18  H18        0.9159     -1.6077     -1.7694  H       1  LIG       0.0000
    19  H19       -0.1016     -2.3587     -0.6472  H       1  LIG       0.0000
    20  H20        1.5921     -2.1821     -0.1974  H       1  LIG       0.0000
@<TRIPOS>BOND
    1     3    12  1
    2     4    14  1
    3     4    13  1
    4     3     4  1
    5     2     3  2
    6     1    10  1
    7     4     5  1
    8     1     2  1
    9     2     7  1
   10     1    11  1
   11     1     9  1
   12     5     7  1
   13     5    15  1
   14     5     6  1
   15     6    17  1
   16     6     7  1
   17     7     8  1
   18     6    16  1
   19     8    19  1
   20     8    18  1
   21     8    20  1
