@<TRIPOS>MOLECULE
generated_molecule
17 17 0 0 0
SMALL
NO_CHARGES

@<TRIPOS>ATOM
     1  C1        -0.6221      1.8828     -1.5808  C       1  LIG       0.0000
     2  N2        -0.3674      0.9763     -0.4395  N       1  LIG       0.0000
     3  C3         0.3232      1.3772      0.6395  C       1  LIG       0.0000
     4  N4         1.4470      0.6985      0.5831  N       1  LIG       0.0000
     5  C5         1.3338     -0.5385     -0.0203  C       1  LIG       0.0000
     6  O6         2.2965     -1.0569     -0.5583  O       1  LIG       0.0000
     7  C7         0.1130     -1.0125      0.4370  C       1  LIG       0.0000
     8  C8         0.0589     -2.2696      1.3291  C       1  LIG       0.0000
     9  C9        -0.8664     -0.2786     -0.2121  C       1  LIG       0.0000
    10  H10       -0.7926      1.1841     -2.4110  H       1  LIG       0.0000
    11  H11       -1.4301      2.5545     -1.3142  H       1  LIG       0.0000
    12  H12        0.1507      2.5496     -1.8568  H       1  LIG       0.0000
    13  H13        0.1662      2.2155      1.3020  H       1  LIG       0.0000
    14  H14       -0.6353     -3.0137      0.9531  H       1  LIG       0.0000
    15  H15        1.0417     -2.7227      1.3868  H       1  LIG       0.0000
    16  H16       -0.3136     -2.0027      2.3093  H       1  LIG       0.0000
    17  H17       -1.9035     -0.5433     -0.5469  H       1  LIG       0.0000
@<TRIPOS>BOND
    1     3    13  1
    2     3     4  ar
    3     4     5  ar
    4     2     3  ar
    5     1    11  1
    6     5     6  2
    7     5     7  ar
    8     1     2  1
    9     2     9  ar
   10     1    10  1
   11     1    12  1
   12     7     9  ar
   13     9    17  1
   14     7     8  1
   15     8    14  1
   16     8    16  1
   17     8    15  1
