@<TRIPOS>MOLECULE
generated_molecule
18 22 0 0 0
SMALL
NO_CHARGES

@<TRIPOS>ATOM
     1  C1        -1.4266      0.4099      1.4877  C       1  LIG       0.0000
     2  C2        -0.7823      1.1455      0.3410  C       1  LIG       0.0000
     3  N3         0.0051      0.8253      1.5685  N       1  LIG       0.0000
     4  C4         1.2749      0.1584      1.0557  C       1  LIG       0.0000
     5  C5         0.8392     -0.9924      0.1780  C       1  LIG       0.0000
     6  C6         0.7577     -0.6150     -1.3146  C       1  LIG       0.0000
     7  C7        -0.7300     -0.6711     -1.5285  C       1  LIG       0.0000
     8  C8        -0.1030      0.1035     -0.4186  C       1  LIG       0.0000
     9  C9         1.3598      0.5115     -0.4314  C       1  LIG       0.0000
    10  H10       -2.3993      0.3785      1.0039  H       1  LIG       0.0000
    11  H11       -1.3766      0.0089      2.4945  H       1  LIG       0.0000
    12  H12       -1.1607      2.0502     -0.0518  H       1  LIG       0.0000
    13  H13        2.0794      0.1169      1.7792  H       1  LIG       0.0000
    14  H14        0.9327     -2.0208      0.5576  H       1  LIG       0.0000
    15  H15        1.1539     -1.0016     -2.2616  H       1  LIG       0.0000
    16  H16       -0.7980     -1.5710     -2.0985  H       1  LIG       0.0000
    17  H17       -1.6624     -0.1488     -1.6100  H       1  LIG       0.0000
    18  H18        2.0360      1.3122     -0.7509  H       1  LIG       0.0000
@<TRIPOS>BOND
    1     6    15  1
    2     7    17  1
    3     6     7  1
    4     5     6  1
    5     6     9  1
    6     5    14  1
    7     7    16  1
    8     7     8  1
    9     5     8  1
   10     4     5  1
   11     8     9  1
   12     4     9  1
   13     9    18  1
   14     4    13  1
   15     2     8  1
   16     3     4  1
   17     1    11  1
   18     2     3  1
   19     1     2  1
   20     2    12  1
   21     1     3  1
   22     1    10  1
