@<TRIPOS>MOLECULE
generated_molecule
21 22 0 0 0
SMALL
NO_CHARGES

@<TRIPOS>ATOM
     1  O1        -0.4094     -1.5112      1.2251  O       1  LIG       0.0000
     2  C2        -0.5880     -0.3155      0.5287  C       1  LIG       0.0000
     3  C3        -0.9525     -1.2734     -0.6516  C       1  LIG       0.0000
     4  C4        -0.0164     -0.2158     -1.1781  C       1  LIG       0.0000
     5  O5        -0.0421     -0.4610     -2.5324  O       1  LIG       0.0000
     6  C6         0.2435      0.8419     -0.1021  C       1  LIG       0.0000
     7  C7         0.9117      0.3961     -0.1501  C       1  LIG       0.0000
     8  C8         0.4665      1.5850      0.7210  C       1  LIG       0.0000
     9  C9        -0.0391      0.1828      1.0486  C       1  LIG       0.0000
    10  H10        0.3549     -2.0080      1.0368  H       1  LIG       0.0000
    11  H11       -0.9631      0.5581      1.0222  H       1  LIG       0.0000
    12  H12       -0.6570     -2.0879     -1.3337  H       1  LIG       0.0000
    13  H13       -1.9624     -1.5326     -0.3872  H       1  LIG       0.0000
    14  H14        0.4961     -1.0869     -2.9248  H       1  LIG       0.0000
    15  H15        0.0297      1.7628     -0.6703  H       1  LIG       0.0000
    16  H16        1.0225      1.0357      0.6286  H       1  LIG       0.0000
    17  H17        1.8203      0.1775     -0.6852  H       1  LIG       0.0000
    18  H18        1.3480      2.1933      0.5228  H       1  LIG       0.0000
    19  H19       -0.3855      2.0939      1.1530  H       1  LIG       0.0000
    20  H20        0.4234     -0.3783      1.8611  H       1  LIG       0.0000
    21  H21       -1.1012      0.0435      0.8676  H       1  LIG       0.0000
@<TRIPOS>BOND
    1     2    11  1
    2     6    15  1
    3     6    16  1
    4     2     6  1
    5     4     6  1
    6     1     2  1
    7     2     3  1
    8     1    10  1
    9     3    12  1
   10     3     4  1
   11     3    13  1
   12     4     5  1
   13     4     7  1
   14     5    14  1
   15     7    17  1
   16     7     9  1
   17     7     8  1
   18     9    20  1
   19     9    21  1
   20     8     9  1
   21     8    19  1
   22     8    18  1
