@<TRIPOS>MOLECULE
generated_molecule
17 17 0 0 0
SMALL
NO_CHARGES

@<TRIPOS>ATOM
     1  N1        -0.5014     -0.1910      1.5172  N       1  LIG       0.0000
     2  C2        -0.7592     -0.6138      0.1529  C       1  LIG       0.0000
     3  C3        -0.5560      0.5968     -0.7242  C       1  LIG       0.0000
     4  O4         0.4743      1.3894     -0.5840  O       1  LIG       0.0000
     5  C5         1.4404      0.4764     -0.2213  C       1  LIG       0.0000
     6  C6         0.7109     -0.8771      0.0820  C       1  LIG       0.0000
     7  O7        -0.4437     -0.7727     -0.6995  O       1  LIG       0.0000
     8  C8        -1.3560      1.5492     -1.4560  C       1  LIG       0.0000
     9  N9        -2.0022      2.3421     -2.0628  N       1  LIG       0.0000
    10  H10        0.4446      0.1974      1.6576  H       1  LIG       0.0000
    11  H11       -1.3144     -0.1048      2.0960  H       1  LIG       0.0000
    12  H12       -1.8006     -0.9288     -0.0352  H       1  LIG       0.0000
    13  H13       -0.0596     -1.3995     -0.1369  H       1  LIG       0.0000
    14  H14        1.9351      0.8770      0.6632  H       1  LIG       0.0000
    15  H15        2.1177      0.2650     -1.0428  H       1  LIG       0.0000
    16  H16        0.8659     -0.9432      1.1586  H       1  LIG       0.0000
    17  H17        0.8041     -1.8624     -0.3646  H       1  LIG       0.0000
@<TRIPOS>BOND
    1     2    13  1
    2     1    10  1
    3     1     2  1
    4     1    11  1
    5     2    12  1
    6     2     3  1
    7     3     8  1
    8     3     7  1
    9     3     4  1
   10     8     9  3
   11     6     7  1
   12     4     5  1
   13     6    17  1
   14     6    16  1
   15     5     6  1
   16     5    14  1
   17     5    15  1
