@<TRIPOS>MOLECULE
generated_molecule
19 19 0 0 0
SMALL
NO_CHARGES

@<TRIPOS>ATOM
     1  C1         1.0306     -1.0912     -1.4385  C       1  LIG       0.0000
     2  C2         1.0152     -0.1046     -0.8080  C       1  LIG       0.0000
     3  C3         1.0061      1.2077     -0.0066  C       1  LIG       0.0000
     4  C4        -0.0479      0.5875      0.8698  C       1  LIG       0.0000
     5  C5         0.2942     -0.4899      1.5332  C       1  LIG       0.0000
     6  C6         0.5089     -1.4273      0.3624  C       1  LIG       0.0000
     7  O7        -0.5162     -0.9378     -0.5350  O       1  LIG       0.0000
     8  C8        -1.2003      0.2619     -0.7781  C       1  LIG       0.0000
     9  C9        -1.4195      1.0664      0.5478  C       1  LIG       0.0000
    10  H10        1.0006     -1.9931     -1.9906  H       1  LIG       0.0000
    11  H11        0.8206      2.0881     -0.6044  H       1  LIG       0.0000
    12  H12        1.8528      1.5999      0.5679  H       1  LIG       0.0000
    13  H13        0.3948     -0.6929      2.5789  H       1  LIG       0.0000
    14  H14        1.5387     -1.3334      0.0312  H       1  LIG       0.0000
    15  H15        0.2707     -2.4553      0.5915  H       1  LIG       0.0000
    16  H16       -2.1394     -0.0787     -1.1833  H       1  LIG       0.0000
    17  H17       -0.6428      0.9257     -1.4221  H       1  LIG       0.0000
    18  H18       -2.1489      0.7453      1.2849  H       1  LIG       0.0000
    19  H19       -1.6183      2.1216      0.3990  H       1  LIG       0.0000
@<TRIPOS>BOND
    1     5    13  1
    2     6    14  1
    3     6    15  1
    4     5     6  1
    5     4     5  2
    6     3    11  1
    7     6     7  1
    8     3     4  1
    9     2     3  1
   10     3    12  1
   11     4     9  1
   12     7     8  1
   13     1     2  3
   14     1    10  1
   15     8    16  1
   16     8     9  1
   17     8    17  1
   18     9    19  1
   19     9    18  1
