@<TRIPOS>MOLECULE
generated_molecule
18 18 0 0 0
SMALL
NO_CHARGES

@<TRIPOS>ATOM
     1  C1        -0.2897      1.4647      0.8599  C       1  LIG       0.0000
     2  C2        -1.0714      0.4925     -0.0911  C       1  LIG       0.0000
     3  O3        -0.4181      0.7967     -1.3081  O       1  LIG       0.0000
     4  C4        -1.3527     -1.0136     -0.3521  C       1  LIG       0.0000
     5  O5        -0.9403     -2.0588     -1.1847  O       1  LIG       0.0000
     6  C6         0.0099     -1.7064     -0.2140  C       1  LIG       0.0000
     7  C7         0.9804     -0.5650      0.1575  C       1  LIG       0.0000
     8  C8         2.1394      0.1668     -0.3126  C       1  LIG       0.0000
     9  N9         3.0712      0.7425     -0.6967  N       1  LIG       0.0000
    10  H10        0.1571      0.9425      1.7024  H       1  LIG       0.0000
    11  H11       -0.9754      2.2219      1.2331  H       1  LIG       0.0000
    12  H12        0.5464      1.9716      0.3732  H       1  LIG       0.0000
    13  H13       -2.0136      0.6608      0.3751  H       1  LIG       0.0000
    14  H14        0.4962      0.8907     -1.3432  H       1  LIG       0.0000
    15  H15       -2.3480     -1.4293     -0.2371  H       1  LIG       0.0000
    16  H16        0.2263     -2.7705     -0.0231  H       1  LIG       0.0000
    17  H17        0.3320      0.2900      0.0649  H       1  LIG       0.0000
    18  H18        1.4500     -1.0972      0.9966  H       1  LIG       0.0000
@<TRIPOS>BOND
    1     1    11  1
    2     8     9  3
    3     5     6  1
    4     4     5  1
    5     7    17  1
    6     7     8  1
    7     2    13  1
    8     1    10  1
    9     1     2  1
   10     1    12  1
   11     6     7  1
   12     7    18  1
   13     2     4  1
   14     2     3  1
   15     4     6  1
   16     6    16  1
   17     4    15  1
   18     3    14  1
