@<TRIPOS>MOLECULE
generated_molecule
19 18 0 0 0
SMALL
NO_CHARGES

@<TRIPOS>ATOM
     1  C1        -0.1703     -0.8777      2.2632  C       1  LIG       0.0000
     2  C2        -0.6419     -0.4039      0.9968  C       1  LIG       0.0000
     3  C3        -0.9928     -0.0438      0.0314  C       1  LIG       0.0000
     4  C4        -1.4783      0.4405     -1.2778  C       1  LIG       0.0000
     5  C5         0.0795      0.2822     -1.4396  C       1  LIG       0.0000
     6  C6         0.9899     -0.8652     -0.9629  C       1  LIG       0.0000
     7  O7         1.0649     -0.5317      0.3985  O       1  LIG       0.0000
     8  C8         0.4052      1.5632     -0.7117  C       1  LIG       0.0000
     9  C9         0.6814      2.5605     -0.1205  C       1  LIG       0.0000
    10  H10        0.0875     -1.9242      2.1315  H       1  LIG       0.0000
    11  H11       -0.9654     -0.7006      2.9870  H       1  LIG       0.0000
    12  H12        0.7088     -0.3723      2.6130  H       1  LIG       0.0000
    13  H13       -2.2079     -0.1329     -1.8181  H       1  LIG       0.0000
    14  H14       -1.9353      1.3903     -1.4552  H       1  LIG       0.0000
    15  H15        0.1379      0.0909     -2.5090  H       1  LIG       0.0000
    16  H16        1.8958     -0.9738     -1.5502  H       1  LIG       0.0000
    17  H17        0.6978     -1.9344     -1.0532  H       1  LIG       0.0000
    18  H18        0.7263     -1.0269      1.0697  H       1  LIG       0.0000
    19  H19        0.9171      3.4598      0.4071  H       1  LIG       0.0000
@<TRIPOS>BOND
    1     6    17  1
    2     6    16  1
    3     6     7  1
    4     5     6  1
    5     7    18  1
    6     4    13  1
    7     1    11  1
    8     3     4  1
    9     4     5  1
   10     4    14  1
   11     2     3  3
   12     5     8  1
   13     5    15  1
   14     1     2  1
   15     1    12  1
   16     1    10  1
   17     8     9  3
   18     9    19  1
