@<TRIPOS>MOLECULE
generated_molecule
16 18 0 0 0
SMALL
NO_CHARGES

@<TRIPOS>ATOM
     1  O1        -0.3364      0.7112     -1.2312  O       1  LIG       0.0000
     2  C2         0.0278      0.0672     -0.0806  C       1  LIG       0.0000
     3  C3        -0.5761     -1.2193     -0.2894  C       1  LIG       0.0000
     4  C4        -0.8223      0.1809     -1.0545  C       1  LIG       0.0000
     5  C5         0.2720      1.1662     -0.5573  C       1  LIG       0.0000
     6  O6         0.6837      2.1484     -1.1440  O       1  LIG       0.0000
     7  C7         0.8322      0.8066      0.8473  C       1  LIG       0.0000
     8  N8         0.7805     -0.1857      1.9681  N       1  LIG       0.0000
     9  C9         0.1415     -1.1150      1.0295  C       1  LIG       0.0000
    10  H10       -0.8755      0.1840     -1.8089  H       1  LIG       0.0000
    11  H11       -0.7471     -2.2886     -0.3163  H       1  LIG       0.0000
    12  H12       -0.6937      0.0277     -2.1335  H       1  LIG       0.0000
    13  H13       -1.8289      0.5202     -0.7955  H       1  LIG       0.0000
    14  H14        1.5086      1.4435      1.4041  H       1  LIG       0.0000
    15  H15        1.5196     -0.3531      2.6561  H       1  LIG       0.0000
    16  H16        0.1142     -2.0941      1.5061  H       1  LIG       0.0000
@<TRIPOS>BOND
    1     5     6  2
    2     4    13  1
    3     4     5  1
    4     5     7  1
    5     4    12  1
    6     3     4  1
    7     7    14  1
    8     2     7  1
    9     7     8  1
   10     2     3  1
   11     3    11  1
   12     3     9  1
   13     1     2  1
   14     2     9  1
   15     1    10  1
   16     8    15  1
   17     8     9  1
   18     9    16  1
