@<TRIPOS>MOLECULE
generated_molecule
19 19 0 0 0
SMALL
NO_CHARGES

@<TRIPOS>ATOM
     1  C1        -0.0834      2.1298      1.6010  C       1  LIG       0.0000
     2  O2        -0.1487      1.2283      0.6054  O       1  LIG       0.0000
     3  C3        -1.0491      0.3669     -0.0294  C       1  LIG       0.0000
     4  C4        -0.4337      0.4872     -1.4245  C       1  LIG       0.0000
     5  C5         0.4402     -0.7857     -1.5712  C       1  LIG       0.0000
     6  C6         0.3089     -1.3738     -0.1768  C       1  LIG       0.0000
     7  C7         1.4476     -2.0852      0.4690  C       1  LIG       0.0000
     8  O8         2.0221     -3.0537      0.0153  O       1  LIG       0.0000
     9  C9        -0.9306     -1.0892      0.3049  C       1  LIG       0.0000
    10  H10        0.1223      1.6438      2.5552  H       1  LIG       0.0000
    11  H11        0.7510      2.7167      1.2561  H       1  LIG       0.0000
    12  H12       -0.9879      2.7380      1.7288  H       1  LIG       0.0000
    13  H13       -2.1272      0.5406      0.2009  H       1  LIG       0.0000
    14  H14       -1.2715      0.6011     -2.1232  H       1  LIG       0.0000
    15  H15        0.2576      1.3119     -1.5409  H       1  LIG       0.0000
    16  H16        1.4192     -0.4238     -1.8739  H       1  LIG       0.0000
    17  H17        0.1453     -1.5891     -2.2578  H       1  LIG       0.0000
    18  H18        1.7585     -1.6608      1.4319  H       1  LIG       0.0000
    19  H19       -1.6405     -1.7029      0.8290  H       1  LIG       0.0000
@<TRIPOS>BOND
    1     7     8  2
    2     7    18  1
    3     6     7  1
    4     6     9  2
    5     5     6  1
    6     5    16  1
    7     9    19  1
    8     3     9  1
    9     5    17  1
   10     4     5  1
   11     3    13  1
   12     3     4  1
   13     2     3  1
   14     4    14  1
   15     4    15  1
   16     1    11  1
   17     1    10  1
   18     1     2  1
   19     1    12  1
