@<TRIPOS>MOLECULE
generated_molecule
21 21 0 0 0
SMALL
NO_CHARGES

@<TRIPOS>ATOM
     1  C1        -0.8495      1.6567     -1.2655  C       1  LIG       0.0000
     2  C2         0.6320      1.4193     -0.9613  C       1  LIG       0.0000
     3  C3         0.6460      0.7193      0.2323  C       1  LIG       0.0000
     4  C4         0.5994      0.1125      1.0851  C       1  LIG       0.0000
     5  C5         0.4908     -0.7259      2.1429  C       1  LIG       0.0000
     6  O6         0.0169     -1.9595      1.8340  O       1  LIG       0.0000
     7  C7        -0.0393     -1.0494      0.7551  C       1  LIG       0.0000
     8  C8        -1.0077      0.0267      0.2284  C       1  LIG       0.0000
     9  C9         0.8227     -2.0103     -0.0361  C       1  LIG       0.0000
    10  H10       -0.8868      1.7484     -2.3507  H       1  LIG       0.0000
    11  H11       -1.4861      0.8558     -0.9266  H       1  LIG       0.0000
    12  H12       -1.2242      2.5777     -0.8336  H       1  LIG       0.0000
    13  H13        1.0964      0.8165     -1.7270  H       1  LIG       0.0000
    14  H14        1.2141      2.3433     -0.8813  H       1  LIG       0.0000
    15  H15        0.7133     -0.7223      3.1886  H       1  LIG       0.0000
    16  H16       -1.5529     -0.4147     -0.6021  H       1  LIG       0.0000
    17  H17       -0.4956      0.9254     -0.1139  H       1  LIG       0.0000
    18  H18       -1.7340      0.3884      0.9586  H       1  LIG       0.0000
    19  H19        1.4697     -1.4557     -0.7079  H       1  LIG       0.0000
    20  H20        0.1128     -2.6234     -0.5937  H       1  LIG       0.0000
    21  H21        1.4617     -2.6287      0.5746  H       1  LIG       0.0000
@<TRIPOS>BOND
    1     5     6  1
    2     6     7  1
    3     2    13  1
    4     1    11  1
    5     8    18  1
    6     8    16  1
    7     2     3  1
    8     1     2  1
    9     2    14  1
   10     1    10  1
   11     3     4  3
   12     1    12  1
   13     4     5  1
   14     5     7  1
   15     5    15  1
   16     7     8  1
   17     8    17  1
   18     7     9  1
   19     9    19  1
   20     9    21  1
   21     9    20  1
