@<TRIPOS>MOLECULE
generated_molecule
19 21 0 0 0
SMALL
NO_CHARGES

@<TRIPOS>ATOM
     1  C1        -1.1211      0.7800      0.1595  C       1  LIG       0.0000
     2  C2        -0.4248     -0.2549     -0.7580  C       1  LIG       0.0000
     3  C3         1.1293     -0.0140     -0.8628  C       1  LIG       0.0000
     4  C4         0.7317      1.0985     -0.0200  C       1  LIG       0.0000
     5  C5        -0.5812      0.3760      0.1090  C       1  LIG       0.0000
     6  C6         0.5808     -0.0258      1.0450  C       1  LIG       0.0000
     7  C7         0.5256     -1.5183      0.8012  C       1  LIG       0.0000
     8  O8         0.5094     -2.4967      1.5074  O       1  LIG       0.0000
     9  C9         0.5762     -1.4125     -0.6974  C       1  LIG       0.0000
    10  H10       -0.7187      1.7951      0.1215  H       1  LIG       0.0000
    11  H11       -2.1709      0.8507     -0.1512  H       1  LIG       0.0000
    12  H12       -1.0540      0.4973      1.2122  H       1  LIG       0.0000
    13  H13       -1.0372     -0.6990     -1.5417  H       1  LIG       0.0000
    14  H14        2.1232      0.2110     -1.2105  H       1  LIG       0.0000
    15  H15        1.2054      2.0383     -0.1718  H       1  LIG       0.0000
    16  H16       -1.3257      1.0592      0.5292  H       1  LIG       0.0000
    17  H17       -0.8786     -0.3743     -0.6335  H       1  LIG       0.0000
    18  H18        1.0968      0.2960      1.9501  H       1  LIG       0.0000
    19  H19        0.8337     -2.2069     -1.3884  H       1  LIG       0.0000
@<TRIPOS>BOND
    1     5    16  1
    2     4    15  1
    3     4     5  1
    4     5    17  1
    5     5     6  1
    6     4     6  1
    7     3     4  1
    8     6    18  1
    9     6     7  1
   10     3    14  1
   11     2     3  1
   12     3     9  1
   13     1    11  1
   14     7     9  1
   15     7     8  2
   16     1     2  1
   17     2     9  1
   18     2    13  1
   19     1    10  1
   20     1    12  1
   21     9    19  1
