@<TRIPOS>MOLECULE
generated_molecule
18 19 0 0 0
SMALL
NO_CHARGES

@<TRIPOS>ATOM
     1  N1        -3.1708      0.5744     -0.0394  N       1  LIG       0.0000
     2  C2        -1.9158      0.1958     -0.1190  C       1  LIG       0.0000
     3  O3        -1.1566      0.2111      1.0164  O       1  LIG       0.0000
     4  C4         0.2641      0.4857      0.8872  C       1  LIG       0.0000
     5  C5         0.5601      0.5242     -0.6726  C       1  LIG       0.0000
     6  C6         1.4098      0.8656      0.5179  C       1  LIG       0.0000
     7  C7         1.2501     -0.6655      0.7957  C       1  LIG       0.0000
     8  C8         0.7693     -1.6681     -0.2154  C       1  LIG       0.0000
     9  C9         0.1934     -0.8693     -1.1126  C       1  LIG       0.0000
    10  H10       -3.6302      0.6061     -0.9138  H       1  LIG       0.0000
    11  H11       -1.4842     -0.1557     -1.0748  H       1  LIG       0.0000
    12  H12        0.7370      1.1228      1.6107  H       1  LIG       0.0000
    13  H13        0.5517      1.2839     -1.4597  H       1  LIG       0.0000
    14  H14        2.4818      1.0497      0.3844  H       1  LIG       0.0000
    15  H15        0.8418      1.6330      1.0634  H       1  LIG       0.0000
    16  H16        1.8050     -1.2464      1.5390  H       1  LIG       0.0000
    17  H17        0.8633     -2.7508     -0.2235  H       1  LIG       0.0000
    18  H18       -0.3699     -1.1963     -1.9839  H       1  LIG       0.0000
@<TRIPOS>BOND
    1     7    16  1
    2     8    17  1
    3     7     8  1
    4     4     7  1
    5     6     7  1
    6     8     9  2
    7     4    12  1
    8     3     4  1
    9     2     3  1
   10     4     5  1
   11     1     2  1
   12     2    11  1
   13     1    10  1
   14     6    15  1
   15     6    14  1
   16     5     6  1
   17     5     9  1
   18     9    18  1
   19     5    13  1
