@<TRIPOS>MOLECULE
generated_molecule
17 16 0 0 0
SMALL
NO_CHARGES

@<TRIPOS>ATOM
     1  O1        -1.2592     -1.7094      2.0339  O       1  LIG       0.0000
     2  C2        -0.6247     -1.6365      0.7438  C       1  LIG       0.0000
     3  C3         0.6181     -0.8512      0.2630  C       1  LIG       0.0000
     4  C4         0.7397      0.7022      0.4316  C       1  LIG       0.0000
     5  O5         0.6236      2.0497      0.9310  O       1  LIG       0.0000
     6  C6        -0.3789      1.2770     -0.4296  C       1  LIG       0.0000
     7  O7        -1.4825      1.5981     -0.0076  O       1  LIG       0.0000
     8  C8         0.0774      1.3502     -1.8305  C       1  LIG       0.0000
     9  C9         0.4622      1.4016     -2.9371  C       1  LIG       0.0000
    10  H10       -1.6591     -2.4613      2.4630  H       1  LIG       0.0000
    11  H11       -1.4428     -1.2064      0.1973  H       1  LIG       0.0000
    12  H12       -0.2974     -2.6839      0.6113  H       1  LIG       0.0000
    13  H13        0.6721     -1.0497     -0.8081  H       1  LIG       0.0000
    14  H14        1.4829     -1.2468      0.8061  H       1  LIG       0.0000
    15  H15        1.6895      0.4094      0.7905  H       1  LIG       0.0000
    16  H16       -0.0390      2.6138      0.6676  H       1  LIG       0.0000
    17  H17        0.8181      1.4431     -3.9263  H       1  LIG       0.0000
@<TRIPOS>BOND
    1     9    17  1
    2     8     9  3
    3     6     8  1
    4     3    14  1
    5     2    11  1
    6     4    15  1
    7     1    10  1
    8     1     2  1
    9     2     3  1
   10     3     4  1
   11     3    13  1
   12     4     6  1
   13     6     7  2
   14     2    12  1
   15     4     5  1
   16     5    16  1
