@<TRIPOS>MOLECULE
generated_molecule
23 22 0 0 0
SMALL
NO_CHARGES

@<TRIPOS>ATOM
     1  C1         1.5764      1.5279     -0.0040  C       1  LIG       0.0000
     2  C2         0.3773      0.6389     -0.4406  C       1  LIG       0.0000
     3  C3         0.4535     -0.7148     -1.2038  C       1  LIG       0.0000
     4  O4        -0.7662     -0.8819     -0.4712  O       1  LIG       0.0000
     5  C5        -0.6966      0.0284      0.6187  C       1  LIG       0.0000
     6  C6        -1.2637     -0.8481      1.7408  C       1  LIG       0.0000
     7  C7        -1.3804      1.3308      0.1218  C       1  LIG       0.0000
     8  C8         0.9467     -2.0913     -1.4510  C       1  LIG       0.0000
     9  C9         1.3470     -3.2400     -1.6500  C       1  LIG       0.0000
    10  H10        1.2430      2.5717      0.0946  H       1  LIG       0.0000
    11  H11        2.0066      1.2153      0.9466  H       1  LIG       0.0000
    12  H12        2.3955      1.4827     -0.7098  H       1  LIG       0.0000
    13  H13       -0.0949      0.3787      0.5174  H       1  LIG       0.0000
    14  H14       -0.1826      1.2627     -1.1386  H       1  LIG       0.0000
    15  H15        0.9472     -0.4980     -2.1275  H       1  LIG       0.0000
    16  H16        0.3076      0.3053      0.9427  H       1  LIG       0.0000
    17  H17       -0.8695     -1.8621      1.6945  H       1  LIG       0.0000
    18  H18       -2.3458     -0.9529      1.6644  H       1  LIG       0.0000
    19  H19       -1.0343     -0.3910      2.7054  H       1  LIG       0.0000
    20  H20       -2.1578      1.2207     -0.6301  H       1  LIG       0.0000
    21  H21       -1.8961      1.7818      0.9785  H       1  LIG       0.0000
    22  H22       -0.6343      1.9672     -0.3551  H       1  LIG       0.0000
    23  H23        1.7215     -4.2319     -1.8436  H       1  LIG       0.0000
@<TRIPOS>BOND
    1     6    17  1
    2     6    18  1
    3     7    21  1
    4     6    19  1
    5     5     6  1
    6     5    16  1
    7     5     7  1
    8     4     5  1
    9     7    20  1
   10     7    22  1
   11     9    23  1
   12     8     9  3
   13     3    15  1
   14     3     8  1
   15     3     4  1
   16     2     3  1
   17     1    11  1
   18     2    14  1
   19     1     2  1
   20     2    13  1
   21     1    10  1
   22     1    12  1
