@<TRIPOS>MOLECULE
generated_molecule
20 20 0 0 0
SMALL
NO_CHARGES

@<TRIPOS>ATOM
     1  C1        -0.7708      1.0528      1.4217  C       1  LIG       0.0000
     2  C2         0.2391     -0.1170      1.5139  C       1  LIG       0.0000
     3  C3         0.4274     -0.8577      0.1716  C       1  LIG       0.0000
     4  N4         1.1942      0.3011      0.3351  N       1  LIG       0.0000
     5  C5         0.8047      0.6507     -1.0769  C       1  LIG       0.0000
     6  C6        -0.0238     -0.6058     -1.2954  C       1  LIG       0.0000
     7  N7        -1.0413      0.0463     -2.0981  N       1  LIG       0.0000
     8  C8         0.4270     -2.3510      0.0920  C       1  LIG       0.0000
     9  N9         0.4312     -3.5294      0.0225  N       1  LIG       0.0000
    10  H10       -0.2838      1.9795      1.7358  H       1  LIG       0.0000
    11  H11       -1.1530      1.1695      0.4127  H       1  LIG       0.0000
    12  H12       -1.6449      0.9055      2.0652  H       1  LIG       0.0000
    13  H13       -0.0955     -0.8645      2.2559  H       1  LIG       0.0000
    14  H14        1.2137      0.2856      1.7700  H       1  LIG       0.0000
    15  H15        1.0773      0.4556      1.3154  H       1  LIG       0.0000
    16  H16        0.2413      1.5745     -1.0119  H       1  LIG       0.0000
    17  H17        1.6595      0.6434     -1.7330  H       1  LIG       0.0000
    18  H18        0.0408     -1.6411     -1.6629  H       1  LIG       0.0000
    19  H19       -0.7816      0.9292     -2.5277  H       1  LIG       0.0000
    20  H20       -1.9616     -0.0271     -1.7058  H       1  LIG       0.0000
@<TRIPOS>BOND
    1     8     9  3
    2     3     8  1
    3     5    16  1
    4     6    18  1
    5     5     6  1
    6     3     6  1
    7     6     7  1
    8     4     5  1
    9     5    17  1
   10     3     4  1
   11     2     3  1
   12     4    15  1
   13     1    11  1
   14     2    14  1
   15     7    19  1
   16     1     2  1
   17     2    13  1
   18     7    20  1
   19     1    10  1
   20     1    12  1
