@<TRIPOS>MOLECULE
generated_molecule
12 12 0 0 0
SMALL
NO_CHARGES

@<TRIPOS>ATOM
     1  N1         1.1870      1.1734     -0.4597  N       1  LIG       0.0000
     2  C2        -0.0109      0.7749      0.0178  C       1  LIG       0.0000
     3  C3        -0.3664     -0.4447      0.0427  C       1  LIG       0.0000
     4  O4        -1.6563     -0.4890      0.4279  O       1  LIG       0.0000
     5  C5        -2.1008      0.7350      0.9219  C       1  LIG       0.0000
     6  O6        -3.1265      1.0609      1.4449  O       1  LIG       0.0000
     7  O7        -0.9859      1.4913      0.6050  O       1  LIG       0.0000
     8  C8         0.5736     -1.4339     -0.3300  C       1  LIG       0.0000
     9  C9         1.3146     -2.2844     -0.6146  C       1  LIG       0.0000
    10  H10        1.2210      1.2889     -1.4859  H       1  LIG       0.0000
    11  H11        1.8949      1.1369      0.2745  H       1  LIG       0.0000
    12  H12        2.0557     -3.0092     -0.8446  H       1  LIG       0.0000
@<TRIPOS>BOND
    1     1     2  1
    2     1    10  1
    3     1    11  1
    4     2     3  ar
    5     2     7  ar
    6     3     4  ar
    7     3     8  1
    8     4     5  ar
    9     5     6  2
   10     5     7  ar
   11     8     9  3
   12     9    12  1
