@<TRIPOS>MOLECULE
generated_molecule
19 19 0 0 0
SMALL
NO_CHARGES

@<TRIPOS>ATOM
     1  C1        -1.6508      0.6480     -0.6463  C       1  LIG       0.0000
     2  C2        -0.3041     -0.0206     -0.3002  C       1  LIG       0.0000
     3  C3        -0.6588     -1.5559      0.0725  C       1  LIG       0.0000
     4  C4         0.6554     -2.0412      0.6867  C       1  LIG       0.0000
     5  O5         0.9045     -2.0655      1.8849  O       1  LIG       0.0000
     6  O6         0.7945     -0.0557     -1.1724  O       1  LIG       0.0000
     7  C7         1.8063      0.7314     -0.5170  C       1  LIG       0.0000
     8  C8         0.5979      1.1048      0.3602  C       1  LIG       0.0000
     9  O9        -0.3879      2.0849      0.5261  O       1  LIG       0.0000
    10  H10       -2.2264      0.7639      0.2713  H       1  LIG       0.0000
    11  H11       -1.5024      1.6143     -1.1215  H       1  LIG       0.0000
    12  H12       -2.2248      0.0380     -1.3395  H       1  LIG       0.0000
    13  H13       -1.0960     -2.0101     -0.8237  H       1  LIG       0.0000
    14  H14       -1.4216     -1.8368      0.8153  H       1  LIG       0.0000
    15  H15        1.4196     -2.3454     -0.0442  H       1  LIG       0.0000
    16  H16        2.5948      0.1702     -0.0355  H       1  LIG       0.0000
    17  H17        2.2474      1.4886     -1.1613  H       1  LIG       0.0000
    18  H18        1.2963      1.1864      1.2120  H       1  LIG       0.0000
    19  H19       -0.8439      2.1008      1.3325  H       1  LIG       0.0000
@<TRIPOS>BOND
    1     4    15  1
    2     4     5  2
    3     3     4  1
    4     2     6  1
    5     6     7  1
    6     1    11  1
    7     3    13  1
    8     2     3  1
    9     3    14  1
   10     7    16  1
   11     1     2  1
   12     2     8  1
   13     1    10  1
   14     1    12  1
   15     7    17  1
   16     7     8  1
   17     8    18  1
   18     8     9  1
   19     9    19  1
