@<TRIPOS>MOLECULE
generated_molecule
11 11 0 0 0
SMALL
NO_CHARGES

@<TRIPOS>ATOM
     1  O1         0.7965     -0.3326      1.4276  O       1  LIG       0.0000
     2  C2         1.1640      0.0978      0.2165  C       1  LIG       0.0000
     3  C3         0.1722      0.3273     -0.7233  C       1  LIG       0.0000
     4  O4        -1.1426      0.1175     -0.6049  O       1  LIG       0.0000
     5  C5        -1.9273     -0.4219      0.3906  C       1  LIG       0.0000
     6  O6        -2.8029     -1.1509      0.1273  O       1  LIG       0.0000
     7  O7         0.9262      0.8196     -1.7341  O       1  LIG       0.0000
     8  N8         2.3056      0.8264     -1.5959  N       1  LIG       0.0000
     9  N9         2.3570      0.3411     -0.3648  N       1  LIG       0.0000
    10  H10       -0.1712     -0.5528      1.4489  H       1  LIG       0.0000
    11  H11       -1.6775     -0.0715      1.4121  H       1  LIG       0.0000
@<TRIPOS>BOND
    1     1     2  1
    2     1    10  1
    3     2     3  ar
    4     2     9  ar
    5     3     4  1
    6     3     7  ar
    7     4     5  1
    8     5     6  2
    9     5    11  1
   10     7     8  ar
   11     8     9  ar
