@<TRIPOS>MOLECULE
generated_molecule
21 24 0 0 0
SMALL
NO_CHARGES

@<TRIPOS>ATOM
     1  C1         1.1854      1.5387     -1.3158  C       1  LIG       0.0000
     2  C2        -0.1448      1.4493     -0.5276  C       1  LIG       0.0000
     3  C3        -0.5037      1.8697      0.8891  C       1  LIG       0.0000
     4  C4        -0.1498      0.4351      0.6346  C       1  LIG       0.0000
     5  C5        -0.9345     -0.7446      0.1457  C       1  LIG       0.0000
     6  C6        -0.5818     -1.7659      1.1009  C       1  LIG       0.0000
     7  C7        -0.5826     -2.0498     -0.4545  C       1  LIG       0.0000
     8  C8         0.5904     -1.2124     -0.1260  C       1  LIG       0.0000
     9  C9         0.5776     -0.7100      1.2545  C       1  LIG       0.0000
    10  H10        1.1076      0.9465     -2.2298  H       1  LIG       0.0000
    11  H11        1.3913      2.5841     -1.5556  H       1  LIG       0.0000
    12  H12        2.0636      1.1578     -0.7944  H       1  LIG       0.0000
    13  H13       -1.0240      1.6656     -1.1330  H       1  LIG       0.0000
    14  H14       -1.5378      2.1364      1.0545  H       1  LIG       0.0000
    15  H15        0.2147      2.4096      1.4980  H       1  LIG       0.0000
    16  H16       -1.9702     -0.9414     -0.0982  H       1  LIG       0.0000
    17  H17       -1.0574     -2.2088      1.9569  H       1  LIG       0.0000
    18  H18       -0.0056     -2.6774     -1.1553  H       1  LIG       0.0000
    19  H19       -1.6461     -2.0024     -0.6309  H       1  LIG       0.0000
    20  H20        1.6076     -1.1891     -0.4716  H       1  LIG       0.0000
    21  H21        1.4001     -0.6910      1.9586  H       1  LIG       0.0000
@<TRIPOS>BOND
    1     1    11  1
    2     3    14  1
    3     2    13  1
    4     3    15  1
    5     2     3  1
    6     3     4  1
    7     1     2  1
    8     1    10  1
    9     1    12  1
   10     2     4  1
   11     4     9  1
   12     4     5  1
   13     9    21  1
   14     8     9  1
   15     6     9  1
   16     5    16  1
   17     5     8  1
   18     5     6  1
   19     8    20  1
   20     7     8  1
   21     6    17  1
   22     6     7  1
   23     7    19  1
   24     7    18  1
