@<TRIPOS>MOLECULE
generated_molecule
17 17 0 0 0
SMALL
NO_CHARGES

@<TRIPOS>ATOM
     1  O1         1.9695      0.8693      0.7325  O       1  LIG       0.0000
     2  C2         0.8666      1.0550     -0.1418  C       1  LIG       0.0000
     3  C3        -0.3930      1.6991      0.4608  C       1  LIG       0.0000
     4  O4        -1.0479      0.5404      0.9105  O       1  LIG       0.0000
     5  C5        -0.5496     -0.7502      0.6950  C       1  LIG       0.0000
     6  C6        -0.1970     -2.0817      0.1568  C       1  LIG       0.0000
     7  C7         0.0950     -3.1855     -0.2961  C       1  LIG       0.0000
     8  C8        -0.4930      0.3914     -0.3397  C       1  LIG       0.0000
     9  O9        -0.8921     -0.3971     -1.4528  O       1  LIG       0.0000
    10  H10        2.6525      0.3179      0.7378  H       1  LIG       0.0000
    11  H11        1.4180      1.2097     -1.0693  H       1  LIG       0.0000
    12  H12       -0.2639      2.2491      1.3874  H       1  LIG       0.0000
    13  H13       -0.9039      2.1922     -0.3486  H       1  LIG       0.0000
    14  H14       -0.6588     -1.1372      1.7014  H       1  LIG       0.0000
    15  H15        0.3473     -4.1455     -0.6862  H       1  LIG       0.0000
    16  H16       -0.8835      1.3875     -0.1607  H       1  LIG       0.0000
    17  H17       -1.0662     -0.2144     -2.2871  H       1  LIG       0.0000
@<TRIPOS>BOND
    1     8    16  1
    2     8     9  1
    3     9    17  1
    4     2    11  1
    5     2     8  1
    6     5     8  1
    7     1    10  1
    8     1     2  1
    9     2     3  1
   10     5    14  1
   11     4     5  1
   12     5     6  1
   13     3    12  1
   14     3     4  1
   15     3    13  1
   16     6     7  3
   17     7    15  1
