@<TRIPOS>MOLECULE
generated_molecule
20 21 0 0 0
SMALL
NO_CHARGES

@<TRIPOS>ATOM
     1  C1        -0.5260      2.0240     -0.6992  C       1  LIG       0.0000
     2  C2         0.1353      0.7319     -0.2422  C       1  LIG       0.0000
     3  N3         1.4646      0.2345      0.0830  N       1  LIG       0.0000
     4  C4         0.5937      0.6812      1.2049  C       1  LIG       0.0000
     5  C5        -0.1789     -0.6345      1.3189  C       1  LIG       0.0000
     6  O6         0.5056     -1.5887      2.0783  O       1  LIG       0.0000
     7  C7        -0.0510     -0.8322     -0.1940  C       1  LIG       0.0000
     8  C8        -0.9942     -1.1027     -1.4125  C       1  LIG       0.0000
     9  O9         0.9284     -1.8217     -0.1310  O       1  LIG       0.0000
    10  H10       -1.5999      1.9867     -0.5323  H       1  LIG       0.0000
    11  H11       -0.3781      2.1636     -1.7656  H       1  LIG       0.0000
    12  H12       -0.1340      2.8991     -0.1833  H       1  LIG       0.0000
    13  H13        2.1500      0.8164     -0.3773  H       1  LIG       0.0000
    14  H14        0.7190      1.5069      1.8621  H       1  LIG       0.0000
    15  H15       -1.1940     -0.4574      1.7303  H       1  LIG       0.0000
    16  H16        0.5333     -1.4487      2.9913  H       1  LIG       0.0000
    17  H17       -2.0089     -1.2745     -1.0464  H       1  LIG       0.0000
    18  H18       -0.6825     -1.9788     -1.9759  H       1  LIG       0.0000
    19  H19       -1.0001     -0.2758     -2.1270  H       1  LIG       0.0000
    20  H20        1.7177     -1.6293     -0.5820  H       1  LIG       0.0000
@<TRIPOS>BOND
    1     8    18  1
    2     8    19  1
    3     9    20  1
    4     8    17  1
    5     7     8  1
    6     7     9  1
    7     5     7  1
    8     2     7  1
    9     1    11  1
   10     1    10  1
   11     5    15  1
   12     5     6  1
   13     6    16  1
   14     4     5  1
   15     1     2  1
   16     2     3  1
   17     2     4  1
   18     1    12  1
   19     3     4  1
   20     3    13  1
   21     4    14  1
