@<TRIPOS>MOLECULE
generated_molecule
18 18 0 0 0
SMALL
NO_CHARGES

@<TRIPOS>ATOM
     1  F1        -1.8358      1.8795     -0.3721  F       1  LIG       0.0000
     2  C2        -1.6855      0.8192     -1.1351  C       1  LIG       0.0000
     3  F3        -1.9948      1.1422     -2.3863  F       1  LIG       0.0000
     4  F4        -2.6421     -0.0291     -0.7798  F       1  LIG       0.0000
     5  C5        -0.2254      0.2510     -0.9816  C       1  LIG       0.0000
     6  C6         1.0443      0.5859     -0.1262  C       1  LIG       0.0000
     7  C7         0.7452      0.3864      1.3927  C       1  LIG       0.0000
     8  C8         0.6799     -1.1282      1.1825  C       1  LIG       0.0000
     9  C9        -0.0016     -1.1289     -0.2483  C       1  LIG       0.0000
    10  H10       -0.0666      0.5741     -2.0117  H       1  LIG       0.0000
    11  H11        1.2192      1.5379     -0.6459  H       1  LIG       0.0000
    12  H12        1.9463     -0.0133     -0.0188  H       1  LIG       0.0000
    13  H13        0.2253      1.3233      1.4672  H       1  LIG       0.0000
    14  H14        1.1003      0.2256      2.4255  H       1  LIG       0.0000
    15  H15        1.3606     -0.9793      2.0619  H       1  LIG       0.0000
    16  H16        0.4836     -2.1811      1.1970  H       1  LIG       0.0000
    17  H17        0.5587     -1.5972     -1.0665  H       1  LIG       0.0000
    18  H18       -0.9114     -1.6683      0.0454  H       1  LIG       0.0000
@<TRIPOS>BOND
    1     2     4  1
    2     2     3  1
    3     1     2  1
    4     2     5  1
    5     6    12  1
    6     5    10  1
    7     6    11  1
    8     5     6  1
    9     5     9  1
   10     6     7  1
   11     9    17  1
   12     9    18  1
   13     8     9  1
   14     7    14  1
   15     7    13  1
   16     7     8  1
   17     8    16  1
   18     8    15  1
