@<TRIPOS>MOLECULE
generated_molecule
19 21 0 0 0
SMALL
NO_CHARGES

@<TRIPOS>ATOM
     1  C1        -0.1198      1.7481      0.3263  C       1  LIG       0.0000
     2  C2        -0.0609      0.2474     -0.1041  C       1  LIG       0.0000
     3  C3        -1.5369      0.5174     -0.3396  C       1  LIG       0.0000
     4  C4        -1.5525     -0.2537      0.7540  C       1  LIG       0.0000
     5  C5        -0.0910     -0.2564      0.5904  C       1  LIG       0.0000
     6  O6         0.4673      0.5352      1.5678  O       1  LIG       0.0000
     7  C7         0.1118     -1.0704     -0.7540  C       1  LIG       0.0000
     8  C8         1.3989     -1.7347     -1.2165  C       1  LIG       0.0000
     9  C9         1.0370     -0.8897      0.0399  C       1  LIG       0.0000
    10  H10        0.3940      1.8680      1.2773  H       1  LIG       0.0000
    11  H11        0.3767      2.3896     -0.3930  H       1  LIG       0.0000
    12  H12       -1.1415      2.1040      0.4233  H       1  LIG       0.0000
    13  H13       -2.1416      1.0637     -0.9797  H       1  LIG       0.0000
    14  H14       -2.2820     -0.6023      1.4303  H       1  LIG       0.0000
    15  H15        0.1853      1.4558      1.3832  H       1  LIG       0.0000
    16  H16       -0.4697     -1.6648     -1.4890  H       1  LIG       0.0000
    17  H17        2.4030     -1.6380     -1.5431  H       1  LIG       0.0000
    18  H18        1.2392     -2.6304     -1.7795  H       1  LIG       0.0000
    19  H19        1.7827     -1.1889      0.8058  H       1  LIG       0.0000
@<TRIPOS>BOND
    1     3    13  1
    2     4    14  1
    3     3     4  2
    4     2     3  1
    5     4     5  1
    6     1    11  1
    7     1    10  1
    8     1     2  1
    9     1    12  1
   10     2     9  1
   11     2     7  1
   12     9    19  1
   13     5     9  1
   14     5     6  1
   15     5     7  1
   16     8     9  1
   17     6    15  1
   18     7    16  1
   19     7     8  1
   20     8    18  1
   21     8    17  1
