
     RDKit          3D

 20 20  0  0  0  0  0  0  0  0999 V2000
    2.5714   -1.3617    1.7332 N   0  0  0  0  0  0  0  0  0  0  0  0
    1.4187   -1.2415    1.7877 C   0  0  0  0  0  0  0  0  0  0  0  0
   -0.0444   -1.1290    1.8442 C   0  0  0  0  0  0  0  0  0  0  0  0
   -0.5635    0.2111    1.3007 C   0  0  0  0  0  0  0  0  0  0  0  0
   -1.3232    0.1156   -0.0312 C   0  0  0  0  0  0  0  0  0  0  0  0
   -0.5030    0.3272   -1.3052 C   0  0  0  0  0  0  0  0  0  0  0  0
    0.8292   -0.4033   -1.5380 C   0  0  0  0  0  0  0  0  0  0  0  0
    1.5600    0.7866   -1.1360 O   0  0  0  0  0  0  0  0  0  0  0  0
    0.3747    1.5871   -1.3946 C   0  0  0  0  0  0  0  0  0  0  0  0
   -0.3355   -1.2104    2.8988 H   0  0  0  0  0  0  0  0  0  0  0  0
   -0.5065   -1.9768    1.3237 H   0  0  0  0  0  0  0  0  0  0  0  0
   -1.2875    0.5784    2.0427 H   0  0  0  0  0  0  0  0  0  0  0  0
    0.2263    0.9705    1.2677 H   0  0  0  0  0  0  0  0  0  0  0  0
   -2.1042    0.8876   -0.0269 H   0  0  0  0  0  0  0  0  0  0  0  0
   -1.8578   -0.8414   -0.0947 H   0  0  0  0  0  0  0  0  0  0  0  0
   -1.1738    0.2185   -2.1682 H   0  0  0  0  0  0  0  0  0  0  0  0
    1.0449   -0.6656   -2.5789 H   0  0  0  0  0  0  0  0  0  0  0  0
    1.0262   -1.2637   -0.9025 H   0  0  0  0  0  0  0  0  0  0  0  0
    0.2224    2.3636   -0.6348 H   0  0  0  0  0  0  0  0  0  0  0  0
    0.4256    2.0473   -2.3875 H   0  0  0  0  0  0  0  0  0  0  0  0
  7 18  1  0
  7 17  1  0
  7  8  1  0
  6  7  1  0
  8  9  1  0
  4 13  1  0
  3 10  1  0
  5 14  1  0
  1  2  3  0
  2  3  1  0
  9 19  1  0
  3  4  1  0
  4  5  1  0
  4 12  1  0
  3 11  1  0
  6  9  1  0
  9 20  1  0
  5  6  1  0
  6 16  1  0
  5 15  1  0
M  END
$$$$

     RDKit          3D

 19 20  0  0  0  0  0  0  0  0999 V2000
    0.0935    0.2860    2.3907 C   0  0  0  0  0  0  0  0  0  0  0  0
   -0.9861    0.0224    1.3542 C   0  0  0  0  0  0  0  0  0  0  0  0
   -0.7183    0.6255   -0.0177 C   0  0  0  0  0  0  0  0  0  0  0  0
    0.3340   -0.0527   -0.8530 C   0  0  0  0  0  0  0  0  0  0  0  0
   -0.2763   -0.0576   -2.3421 C   0  0  0  0  0  0  0  0  0  0  0  0
    0.4972   -1.2042   -1.8128 C   0  0  0  0  0  0  0  0  0  0  0  0
    1.9548   -0.9449   -1.7686 O   0  0  0  0  0  0  0  0  0  0  0  0
    1.7650   -0.0700   -0.6626 C   0  0  0  0  0  0  0  0  0  0  0  0
    2.4973    0.3460    0.2082 O   0  0  0  0  0  0  0  0  0  0  0  0
    0.9460   -0.3856    2.2468 H   0  0  0  0  0  0  0  0  0  0  0  0
   -0.2757    0.0811    3.4038 H   0  0  0  0  0  0  0  0  0  0  0  0
    0.4600    1.3500    2.3881 H   0  0  0  0  0  0  0  0  0  0  0  0
   -1.2068   -1.0647    1.2963 H   0  0  0  0  0  0  0  0  0  0  0  0
   -1.8800    0.5375    1.7335 H   0  0  0  0  0  0  0  0  0  0  0  0
   -0.3892    1.7130    0.1231 H   0  0  0  0  0  0  0  0  0  0  0  0
   -1.6929    0.7240   -0.4484 H   0  0  0  0  0  0  0  0  0  0  0  0
   -1.3047   -0.3208   -2.5711 H   0  0  0  0  0  0  0  0  0  0  0  0
    0.1554    0.5921   -3.1298 H   0  0  0  0  0  0  0  0  0  0  0  0
    0.0267   -2.1773   -1.5385 H   0  0  0  0  0  0  0  0  0  0  0  0
  8  9  2  0
  2 14  1  0
  1 11  1  0
  1 10  1  0
  1  2  1  0
  1 12  1  0
  2 13  1  0
  2  3  1  0
  7  8  1  0
  4  8  1  0
  3 15  1  0
  6  7  1  0
  3  4  1  0
  3 16  1  0
  4  5  1  0
  4  6  1  0
  5 18  1  0
  5  6  1  0
  5 17  1  0
  6 19  1  0
M  END
$$$$

     RDKit          3D

 16 17  0  0  0  0  0  0  0  0999 V2000
    0.5266    2.1464    0.4631 O   0  0  0  0  0  0  0  0  0  0  0  0
    1.0660    0.8532    0.2391 C   0  0  0  0  0  0  0  0  0  0  0  0
    1.0904    0.4920   -1.2357 C   0  0  0  0  0  0  0  0  0  0  0  0
    1.2197   -0.9648   -1.2162 N   0  0  0  0  0  0  0  0  0  0  0  0
    0.3864   -1.4332   -0.1033 C   0  0  0  0  0  0  0  0  0  0  0  0
   -0.9187   -1.7864   -0.5399 O   0  0  0  0  0  0  0  0  0  0  0  0
   -1.8341   -1.0018    0.2108 C   0  0  0  0  0  0  0  0  0  0  0  0
   -1.1726    0.1041    0.8195 O   0  0  0  0  0  0  0  0  0  0  0  0
    0.2097   -0.2571    0.8453 C   0  0  0  0  0  0  0  0  0  0  0  0
   -0.3284    2.0162    0.9469 H   0  0  0  0  0  0  0  0  0  0  0  0
    2.0776    0.8239    0.6583 H   0  0  0  0  0  0  0  0  0  0  0  0
    0.1687    0.7906   -1.7424 H   0  0  0  0  0  0  0  0  0  0  0  0
    1.9151    0.9649   -1.7734 H   0  0  0  0  0  0  0  0  0  0  0  0
   -2.2799   -1.6224    0.9967 H   0  0  0  0  0  0  0  0  0  0  0  0
   -2.6382   -0.6433   -0.4430 H   0  0  0  0  0  0  0  0  0  0  0  0
    0.5118   -0.4824    1.8741 H   0  0  0  0  0  0  0  0  0  0  0  0
  2 11  1  0
  9 16  1  0
  8  9  1  0
  7  8  1  0
  2  9  1  0
  5  9  1  0
  7 14  1  0
  1  2  1  0
  2  3  1  0
  1 10  1  0
  7 15  1  0
  6  7  1  0
  3 12  1  0
  3 13  1  0
  3  4  1  0
  5  6  1  0
  4  5  1  0
M  END
$$$$

     RDKit          3D

 17 17  0  0  0  0  0  0  0  0999 V2000
    1.5534   -1.1144    1.5409 O   0  0  0  0  0  0  0  0  0  0  0  0
    0.9568   -0.7920    0.5375 C   0  0  0  0  0  0  0  0  0  0  0  0
    1.5456    0.2406   -0.1631 N   0  0  0  0  0  0  0  0  0  0  0  0
    0.9542    1.7205   -0.1582 C   0  0  0  0  0  0  0  0  0  0  0  0
    0.2135    1.9940    0.9897 C   0  0  0  0  0  0  0  0  0  0  0  0
   -0.3852    2.5004    1.8402 N   0  0  0  0  0  0  0  0  0  0  0  0
   -0.4711   -1.1630    0.4992 C   0  0  0  0  0  0  0  0  0  0  0  0
   -1.1448   -1.8507   -0.8114 C   0  0  0  0  0  0  0  0  0  0  0  0
   -1.3445   -0.3946   -0.4241 C   0  0  0  0  0  0  0  0  0  0  0  0
    2.5889    0.2497   -0.0659 H   0  0  0  0  0  0  0  0  0  0  0  0
    1.8451    2.3781   -0.1786 H   0  0  0  0  0  0  0  0  0  0  0  0
    0.4061    2.0064   -1.1465 H   0  0  0  0  0  0  0  0  0  0  0  0
   -0.7749   -1.5961    1.5105 H   0  0  0  0  0  0  0  0  0  0  0  0
   -1.9987   -2.4451   -0.7008 H   0  0  0  0  0  0  0  0  0  0  0  0
   -0.7090   -1.9617   -1.8349 H   0  0  0  0  0  0  0  0  0  0  0  0
   -2.3914   -0.0028   -0.2309 H   0  0  0  0  0  0  0  0  0  0  0  0
   -0.8440    0.2306   -1.2036 H   0  0  0  0  0  0  0  0  0  0  0  0
  8 15  1  0
  8 14  1  0
  8  9  1  0
  7  8  1  0
  1  2  2  0
  5  6  3  0
  9 16  1  0
  7  9  1  0
  9 17  1  0
  2  7  1  0
  2  3  1  0
  4 12  1  0
  7 13  1  0
  4  5  1  0
  3  4  1  0
  4 11  1  0
  3 10  1  0
M  END
$$$$

     RDKit          3D

 22 24  0  0  0  0  0  0  0  0999 V2000
   -1.2729    1.2846    1.2996 C   0  0  0  0  0  0  0  0  0  0  0  0
   -0.3558    0.1000    1.2618 C   0  0  0  0  0  0  0  0  0  0  0  0
   -1.7411   -0.0135    0.7703 N   0  0  0  0  0  0  0  0  0  0  0  0
   -1.9652    0.0562   -0.6877 C   0  0  0  0  0  0  0  0  0  0  0  0
   -0.7901   -0.3409   -1.5793 C   0  0  0  0  0  0  0  0  0  0  0  0
    0.5150    0.3073   -1.1362 C   0  0  0  0  0  0  0  0  0  0  0  0
    0.8079   -0.1410    0.2761 C   0  0  0  0  0  0  0  0  0  0  0  0
    2.2466   -0.0682    0.7644 C   0  0  0  0  0  0  0  0  0  0  0  0
    1.6588   -1.4049    0.3881 C   0  0  0  0  0  0  0  0  0  0  0  0
   -1.7096    1.5773    2.2402 H   0  0  0  0  0  0  0  0  0  0  0  0
   -1.1065    2.0895    0.5930 H   0  0  0  0  0  0  0  0  0  0  0  0
   -0.1891   -0.3232    2.2743 H   0  0  0  0  0  0  0  0  0  0  0  0
   -2.3058    1.0671   -0.9726 H   0  0  0  0  0  0  0  0  0  0  0  0
   -2.8132   -0.5900   -0.9354 H   0  0  0  0  0  0  0  0  0  0  0  0
   -1.0028   -0.0745   -2.6113 H   0  0  0  0  0  0  0  0  0  0  0  0
   -0.7005   -1.4306   -1.5640 H   0  0  0  0  0  0  0  0  0  0  0  0
    0.4664    1.4082   -1.1664 H   0  0  0  0  0  0  0  0  0  0  0  0
    1.3383    0.0114   -1.8067 H   0  0  0  0  0  0  0  0  0  0  0  0
    2.4525    0.1089    1.8218 H   0  0  0  0  0  0  0  0  0  0  0  0
    2.9908    0.3546    0.0811 H   0  0  0  0  0  0  0  0  0  0  0  0
    1.4751   -2.1021    1.2108 H   0  0  0  0  0  0  0  0  0  0  0  0
    2.0012   -1.8762   -0.5220 H   0  0  0  0  0  0  0  0  0  0  0  0
  6 17  1  0
  5 16  1  0
  6 18  1  0
  5  6  1  0
  6  7  1  0
  5 15  1  0
  4  5  1  0
  8 19  1  0
  9 22  1  0
  4 14  1  0
  7  8  1  0
  8  9  1  0
  8 20  1  0
  7  9  1  0
  2  7  1  0
  4 13  1  0
  3  4  1  0
  9 21  1  0
  1 11  1  0
  1  2  1  0
  2  3  1  0
  2 12  1  0
  1  3  1  0
  1 10  1  0
M  END
$$$$

     RDKit          3D

 17 16  0  0  0  0  0  0  0  0999 V2000
   -0.9818   -3.6019    0.3951 C   0  0  0  0  0  0  0  0  0  0  0  0
   -0.5067   -2.6084   -0.0904 C   0  0  0  0  0  0  0  0  0  0  0  0
    0.0119   -1.3583   -0.6852 C   0  0  0  0  0  0  0  0  0  0  0  0
    0.2241   -0.2960    0.3941 C   0  0  0  0  0  0  0  0  0  0  0  0
    0.5585    1.0892   -0.1794 C   0  0  0  0  0  0  0  0  0  0  0  0
   -0.6006    1.6708   -0.8819 C   0  0  0  0  0  0  0  0  0  0  0  0
   -1.5414    2.0549   -1.5296 C   0  0  0  0  0  0  0  0  0  0  0  0
    1.0613    1.9648    0.8986 C   0  0  0  0  0  0  0  0  0  0  0  0
    1.5325    2.6005    1.8062 C   0  0  0  0  0  0  0  0  0  0  0  0
   -1.4238   -4.4753    0.8325 H   0  0  0  0  0  0  0  0  0  0  0  0
   -0.6907   -1.0106   -1.4556 H   0  0  0  0  0  0  0  0  0  0  0  0
    0.9774   -1.5710   -1.1816 H   0  0  0  0  0  0  0  0  0  0  0  0
   -0.6545   -0.2301    1.0351 H   0  0  0  0  0  0  0  0  0  0  0  0
    1.0379   -0.6346    1.0497 H   0  0  0  0  0  0  0  0  0  0  0  0
    1.3613    0.9703   -0.9141 H   0  0  0  0  0  0  0  0  0  0  0  0
   -2.3777    2.3500   -2.1310 H   0  0  0  0  0  0  0  0  0  0  0  0
    2.0125    3.0859    2.6374 H   0  0  0  0  0  0  0  0  0  0  0  0
  4 14  1  0
  5 15  1  0
  3 11  1  0
  9 17  1  0
  8  9  3  0
  5  8  1  0
  1 10  1  0
  1  2  3  0
  2  3  1  0
  3  4  1  0
  4  5  1  0
  4 13  1  0
  3 12  1  0
  5  6  1  0
  6  7  3  0
  7 16  1  0
M  END
$$$$

     RDKit          3D

 17 18  0  0  0  0  0  0  0  0999 V2000
    1.0795   -1.3867    0.1510 C   0  0  0  0  0  0  0  0  0  0  0  0
    0.4494   -0.6287   -0.9189 N   0  0  0  0  0  0  0  0  0  0  0  0
    1.0893    0.6841   -1.0898 C   0  0  0  0  0  0  0  0  0  0  0  0
   -0.1970    1.3639   -0.6237 C   0  0  0  0  0  0  0  0  0  0  0  0
   -0.4199    1.5366    0.8003 O   0  0  0  0  0  0  0  0  0  0  0  0
   -1.3347    0.4020    0.7794 C   0  0  0  0  0  0  0  0  0  0  0  0
   -1.1871   -0.4806    1.9147 C   0  0  0  0  0  0  0  0  0  0  0  0
   -1.0912   -1.1997    2.8220 N   0  0  0  0  0  0  0  0  0  0  0  0
   -0.8639   -0.0216   -0.6202 C   0  0  0  0  0  0  0  0  0  0  0  0
    0.4715   -2.2585    0.4138 H   0  0  0  0  0  0  0  0  0  0  0  0
    1.2855   -0.8017    1.0532 H   0  0  0  0  0  0  0  0  0  0  0  0
    2.0414   -1.7746   -0.2027 H   0  0  0  0  0  0  0  0  0  0  0  0
    1.3484    0.9076   -2.1313 H   0  0  0  0  0  0  0  0  0  0  0  0
    1.9687    0.8919   -0.4695 H   0  0  0  0  0  0  0  0  0  0  0  0
   -0.6403    2.1495   -1.2401 H   0  0  0  0  0  0  0  0  0  0  0  0
   -2.3646    0.7871    0.7426 H   0  0  0  0  0  0  0  0  0  0  0  0
   -1.6349   -0.1706   -1.3808 H   0  0  0  0  0  0  0  0  0  0  0  0
  7  8  3  0
  1 11  1  0
  3 14  1  0
  6  7  1  0
  1  2  1  0
  1 10  1  0
  1 12  1  0
  2  3  1  0
  2  9  1  0
  3 13  1  0
  3  4  1  0
  5  6  1  0
  4  5  1  0
  6  9  1  0
  6 16  1  0
  4  9  1  0
  4 15  1  0
  9 17  1  0
M  END
$$$$

     RDKit          3D

 21 22  0  0  0  0  0  0  0  0999 V2000
   -0.5598    2.2061   -0.6860 C   0  0  0  0  0  0  0  0  0  0  0  0
   -0.3271    1.0910    0.3156 C   0  0  0  0  0  0  0  0  0  0  0  0
    0.8708    1.3305    1.2768 C   0  0  0  0  0  0  0  0  0  0  0  0
    1.6772    0.4090    0.4919 O   0  0  0  0  0  0  0  0  0  0  0  0
    0.4823   -0.0536   -0.1311 C   0  0  0  0  0  0  0  0  0  0  0  0
    0.4873   -0.8312   -1.3968 C   0  0  0  0  0  0  0  0  0  0  0  0
    0.1821   -1.5226   -0.0869 C   0  0  0  0  0  0  0  0  0  0  0  0
   -1.1910   -1.9908    0.2245 C   0  0  0  0  0  0  0  0  0  0  0  0
    1.2220   -2.3637    0.4227 O   0  0  0  0  0  0  0  0  0  0  0  0
   -1.3496    2.8696   -0.2867 H   0  0  0  0  0  0  0  0  0  0  0  0
    0.3349    2.8297   -0.8384 H   0  0  0  0  0  0  0  0  0  0  0  0
   -0.8952    1.8198   -1.6652 H   0  0  0  0  0  0  0  0  0  0  0  0
   -1.2489    0.8054    0.8343 H   0  0  0  0  0  0  0  0  0  0  0  0
    0.7252    0.9468    2.2922 H   0  0  0  0  0  0  0  0  0  0  0  0
    1.3045    2.3357    1.2963 H   0  0  0  0  0  0  0  0  0  0  0  0
    1.4437   -1.0018   -1.8720 H   0  0  0  0  0  0  0  0  0  0  0  0
   -0.3184   -0.6686   -2.0942 H   0  0  0  0  0  0  0  0  0  0  0  0
   -1.3326   -3.0345   -0.0950 H   0  0  0  0  0  0  0  0  0  0  0  0
   -1.9692   -1.3959   -0.2741 H   0  0  0  0  0  0  0  0  0  0  0  0
   -1.3841   -1.9497    1.3058 H   0  0  0  0  0  0  0  0  0  0  0  0
    1.8459   -1.8313    0.9662 H   0  0  0  0  0  0  0  0  0  0  0  0
  3 14  1  0
  3 15  1  0
  1 11  1  0
  2  3  1  0
  3  4  1  0
  2 13  1  0
  1  2  1  0
  2  5  1  0
  1 10  1  0
  1 12  1  0
  4  5  1  0
  5  7  1  0
  5  6  1  0
  8 19  1  0
  8 18  1  0
  7  8  1  0
  7  9  1  0
  6  7  1  0
  8 20  1  0
  9 21  1  0
  6 17  1  0
  6 16  1  0
M  END
$$$$

     RDKit          3D

 19 19  0  0  0  0  0  0  0  0999 V2000
   -1.3570    0.9721   -0.8822 C   0  0  0  0  0  0  0  0  0  0  0  0
   -0.2476    0.0681   -0.3421 C   0  0  0  0  0  0  0  0  0  0  0  0
   -0.7364   -1.3636   -0.1472 C   0  0  0  0  0  0  0  0  0  0  0  0
    0.3506   -2.3285    0.2322 C   0  0  0  0  0  0  0  0  0  0  0  0
    0.5683   -2.6539    1.3991 O   0  0  0  0  0  0  0  0  0  0  0  0
    0.9009    0.1020   -1.2340 O   0  0  0  0  0  0  0  0  0  0  0  0
    1.6198    0.9540   -0.3060 C   0  0  0  0  0  0  0  0  0  0  0  0
    0.5969    0.6842    0.8079 C   0  0  0  0  0  0  0  0  0  0  0  0
    0.0565    1.8247    1.5047 O   0  0  0  0  0  0  0  0  0  0  0  0
   -2.1091    1.1664   -0.1069 H   0  0  0  0  0  0  0  0  0  0  0  0
   -0.9668    1.9352   -1.2288 H   0  0  0  0  0  0  0  0  0  0  0  0
   -1.8785    0.5079   -1.7340 H   0  0  0  0  0  0  0  0  0  0  0  0
   -1.2052   -1.7537   -1.0615 H   0  0  0  0  0  0  0  0  0  0  0  0
   -1.4993   -1.4026    0.6404 H   0  0  0  0  0  0  0  0  0  0  0  0
    0.9929   -2.6862   -0.5915 H   0  0  0  0  0  0  0  0  0  0  0  0
    2.6341    0.5780   -0.0999 H   0  0  0  0  0  0  0  0  0  0  0  0
    1.6754    1.9862   -0.6737 H   0  0  0  0  0  0  0  0  0  0  0  0
    0.9862   -0.0428    1.5334 H   0  0  0  0  0  0  0  0  0  0  0  0
   -0.3815    1.4526    2.2900 H   0  0  0  0  0  0  0  0  0  0  0  0
  4 15  1  0
  4  5  2  0
  3  4  1  0
  2  6  1  0
  6  7  1  0
  1 11  1  0
  3 13  1  0
  2  3  1  0
  3 14  1  0
  7 16  1  0
  1  2  1  0
  2  8  1  0
  1 10  1  0
  1 12  1  0
  7 17  1  0
  7  8  1  0
  8 18  1  0
  8  9  1  0
  9 19  1  0
M  END
$$$$

     RDKit          3D

 18 18  0  0  0  0  0  0  0  0999 V2000
    1.2633    0.4582    0.7938 C   0  0  0  0  0  0  0  0  0  0  0  0
    0.4583    0.2153   -0.5039 C   0  0  0  0  0  0  0  0  0  0  0  0
    1.2348   -0.5271   -1.5633 C   0  0  0  0  0  0  0  0  0  0  0  0
   -0.0279    1.4787   -0.9991 O   0  0  0  0  0  0  0  0  0  0  0  0
   -1.3289    1.2005   -0.2585 C   0  0  0  0  0  0  0  0  0  0  0  0
   -0.9782   -0.2878   -0.2280 C   0  0  0  0  0  0  0  0  0  0  0  0
   -1.2727   -1.0006    0.9771 C   0  0  0  0  0  0  0  0  0  0  0  0
   -1.4779   -1.5760    1.9970 C   0  0  0  0  0  0  0  0  0  0  0  0
    0.6522    0.8201    1.6642 H   0  0  0  0  0  0  0  0  0  0  0  0
    2.0573    1.1918    0.7261 H   0  0  0  0  0  0  0  0  0  0  0  0
    1.7177   -0.5113    1.0331 H   0  0  0  0  0  0  0  0  0  0  0  0
    2.2737   -0.1957   -1.5975 H   0  0  0  0  0  0  0  0  0  0  0  0
    1.3472   -1.5357   -1.2474 H   0  0  0  0  0  0  0  0  0  0  0  0
    0.7851   -0.4153   -2.5600 H   0  0  0  0  0  0  0  0  0  0  0  0
   -2.2176    1.5198   -0.8574 H   0  0  0  0  0  0  0  0  0  0  0  0
   -1.3642    1.8023    0.6714 H   0  0  0  0  0  0  0  0  0  0  0  0
   -1.5532   -0.7447   -1.0432 H   0  0  0  0  0  0  0  0  0  0  0  0
   -1.5689   -1.8925    2.9958 H   0  0  0  0  0  0  0  0  0  0  0  0
  3 12  1  0
  1 10  1  0
  2  4  1  0
  4  5  1  0
  3 13  1  0
  2  3  1  0
  3 14  1  0
  1  2  1  0
  1  9  1  0
  1 11  1  0
  2  6  1  0
  5 15  1  0
  5 16  1  0
  5  6  1  0
  6 17  1  0
  6  7  1  0
  7  8  3  0
  8 18  1  0
M  END
$$$$

     RDKit          3D

 16 17  0  0  0  0  0  0  0  0999 V2000
   -0.5789   -0.3274   -2.9573 O   0  0  0  0  0  0  0  0  0  0  0  0
   -0.1924   -0.1960   -1.7919 C   0  0  0  0  0  0  0  0  0  0  0  0
   -0.6883    0.9141   -0.8836 C   0  0  0  0  0  0  0  0  0  0  0  0
   -0.3889    0.6685    0.5918 C   0  0  0  0  0  0  0  0  0  0  0  0
   -0.5787   -0.8358    0.9496 C   0  0  0  0  0  0  0  0  0  0  0  0
    0.7903   -0.9974    0.2282 C   0  0  0  0  0  0  0  0  0  0  0  0
    1.1220    0.4058    0.8117 C   0  0  0  0  0  0  0  0  0  0  0  0
    0.7038   -1.0634   -1.2127 O   0  0  0  0  0  0  0  0  0  0  0  0
   -1.7759    0.9972   -1.0142 H   0  0  0  0  0  0  0  0  0  0  0  0
   -0.2207    1.8458   -1.2136 H   0  0  0  0  0  0  0  0  0  0  0  0
   -0.8493    1.3843    1.2786 H   0  0  0  0  0  0  0  0  0  0  0  0
   -0.5804   -1.0799    2.0178 H   0  0  0  0  0  0  0  0  0  0  0  0
   -1.4351   -1.3341    0.4761 H   0  0  0  0  0  0  0  0  0  0  0  0
    1.4198   -1.8044    0.6080 H   0  0  0  0  0  0  0  0  0  0  0  0
    1.8155    1.0279    0.2432 H   0  0  0  0  0  0  0  0  0  0  0  0
    1.4370    0.3948    1.8683 H   0  0  0  0  0  0  0  0  0  0  0  0
  5 13  1  0
  5 12  1  0
  5  6  1  0
  4  5  1  0
  6 14  1  0
  4 11  1  0
  6  8  1  0
  6  7  1  0
  3  4  1  0
  4  7  1  0
  3  9  1  0
  7 15  1  0
  2  8  1  0
  2  3  1  0
  3 10  1  0
  7 16  1  0
  1  2  2  0
M  END
$$$$

     RDKit          3D

 20 22  0  0  0  0  0  0  0  0999 V2000
   -1.4944   -0.7824    1.6299 C   0  0  0  0  0  0  0  0  0  0  0  0
   -0.7266   -0.5703    0.3231 C   0  0  0  0  0  0  0  0  0  0  0  0
    0.2475   -1.6179   -0.2979 C   0  0  0  0  0  0  0  0  0  0  0  0
    1.4489   -0.7871   -0.0054 N   0  0  0  0  0  0  0  0  0  0  0  0
    1.6771    0.0306   -1.2491 C   0  0  0  0  0  0  0  0  0  0  0  0
    0.7057    1.2072   -0.8275 C   0  0  0  0  0  0  0  0  0  0  0  0
   -0.8000    1.5914   -0.6519 C   0  0  0  0  0  0  0  0  0  0  0  0
   -1.5406    0.2603   -0.6176 O   0  0  0  0  0  0  0  0  0  0  0  0
    0.6339    0.3185    0.5437 C   0  0  0  0  0  0  0  0  0  0  0  0
   -1.0191   -1.6157    2.2468 H   0  0  0  0  0  0  0  0  0  0  0  0
   -1.5290    0.1668    2.2499 H   0  0  0  0  0  0  0  0  0  0  0  0
   -2.5054   -1.0707    1.4764 H   0  0  0  0  0  0  0  0  0  0  0  0
    0.2027   -1.6900   -1.4610 H   0  0  0  0  0  0  0  0  0  0  0  0
    0.3061   -2.6984    0.1009 H   0  0  0  0  0  0  0  0  0  0  0  0
    1.4923   -0.4151   -2.1697 H   0  0  0  0  0  0  0  0  0  0  0  0
    2.7689    0.4308   -1.2278 H   0  0  0  0  0  0  0  0  0  0  0  0
    1.3037    2.1569   -0.7440 H   0  0  0  0  0  0  0  0  0  0  0  0
   -0.7414    2.0614    0.3413 H   0  0  0  0  0  0  0  0  0  0  0  0
   -1.3077    2.3334   -1.2216 H   0  0  0  0  0  0  0  0  0  0  0  0
    0.8772    0.6904    1.5616 H   0  0  0  0  0  0  0  0  0  0  0  0
  3 13  1  0
  3 14  1  0
  3  4  1  0
  2  3  1  0
  4  5  1  0
  4  9  1  0
  5 15  1  0
  1 11  1  0
  5 16  1  0
  5  6  1  0
  9 20  1  0
  2  9  1  0
  6  9  1  0
  1  2  1  0
  2  8  1  0
  1 10  1  0
  1 12  1  0
  6 17  1  0
  6  7  1  0
  7  8  1  0
  7 19  1  0
  7 18  1  0
M  END
$$$$

     RDKit          3D

 23 23  0  0  0  0  0  0  0  0999 V2000
   -0.1893    1.8052    1.9742 C   0  0  0  0  0  0  0  0  0  0  0  0
    0.5896    1.3402    0.7541 C   0  0  0  0  0  0  0  0  0  0  0  0
   -0.3088    0.6612   -0.2374 C   0  0  0  0  0  0  0  0  0  0  0  0
    0.2407   -0.1559   -1.3818 C   0  0  0  0  0  0  0  0  0  0  0  0
    1.7110   -0.3102   -1.5789 C   0  0  0  0  0  0  0  0  0  0  0  0
   -0.5388   -0.8502   -0.2562 C   0  0  0  0  0  0  0  0  0  0  0  0
   -1.9442   -1.3025   -0.5737 C   0  0  0  0  0  0  0  0  0  0  0  0
    0.2132   -1.7305    0.6932 C   0  0  0  0  0  0  0  0  0  0  0  0
    0.1140   -1.5920    1.9100 O   0  0  0  0  0  0  0  0  0  0  0  0
    0.4773    2.2988    2.6844 H   0  0  0  0  0  0  0  0  0  0  0  0
   -0.9689    2.5205    1.6910 H   0  0  0  0  0  0  0  0  0  0  0  0
   -0.6722    0.9647    2.4838 H   0  0  0  0  0  0  0  0  0  0  0  0
    1.0486    2.2126    0.2720 H   0  0  0  0  0  0  0  0  0  0  0  0
    1.4079    0.6907    1.0818 H   0  0  0  0  0  0  0  0  0  0  0  0
   -1.1438    1.3048   -0.4963 H   0  0  0  0  0  0  0  0  0  0  0  0
   -0.2447   -0.0287   -2.3466 H   0  0  0  0  0  0  0  0  0  0  0  0
    2.2361   -0.6754   -0.6890 H   0  0  0  0  0  0  0  0  0  0  0  0
    2.1557    0.6511   -1.8654 H   0  0  0  0  0  0  0  0  0  0  0  0
    1.9049   -1.0219   -2.3905 H   0  0  0  0  0  0  0  0  0  0  0  0
   -2.6259   -1.0374    0.2462 H   0  0  0  0  0  0  0  0  0  0  0  0
   -1.9766   -2.3912   -0.7178 H   0  0  0  0  0  0  0  0  0  0  0  0
   -2.3262   -0.8355   -1.4943 H   0  0  0  0  0  0  0  0  0  0  0  0
    0.8404   -2.5184    0.2374 H   0  0  0  0  0  0  0  0  0  0  0  0
  5 19  1  0
  5 18  1  0
  5 17  1  0
  4  5  1  0
  1 11  1  0
  1 10  1  0
  1 12  1  0
  1  2  1  0
  4 16  1  0
  3  4  1  0
  4  6  1  0
  2 13  1  0
  2  3  1  0
  2 14  1  0
  7 20  1  0
  3 15  1  0
  3  6  1  0
  6  7  1  0
  6  8  1  0
  7 22  1  0
  7 21  1  0
  8  9  2  0
  8 23  1  0
M  END
$$$$

     RDKit          3D

 13 14  0  0  0  0  0  0  0  0999 V2000
    1.6900    0.8568    1.6773 N   0  0  0  0  0  0  0  0  0  0  0  0
    0.9697   -0.2504    1.0324 C   0  0  0  0  0  0  0  0  0  0  0  0
   -0.1486   -0.8130    1.7410 O   0  0  0  0  0  0  0  0  0  0  0  0
   -1.0277   -0.6409    0.6123 C   0  0  0  0  0  0  0  0  0  0  0  0
   -1.2760    0.7777    0.1309 C   0  0  0  0  0  0  0  0  0  0  0  0
    0.0490    0.1039   -0.0972 C   0  0  0  0  0  0  0  0  0  0  0  0
    0.4404   -0.2815   -1.4254 C   0  0  0  0  0  0  0  0  0  0  0  0
    0.8641   -0.7360   -2.4525 C   0  0  0  0  0  0  0  0  0  0  0  0
    2.6418    0.8791    1.3498 H   0  0  0  0  0  0  0  0  0  0  0  0
   -2.0017   -1.2043    0.6096 H   0  0  0  0  0  0  0  0  0  0  0  0
   -1.9429    0.9216   -0.7195 H   0  0  0  0  0  0  0  0  0  0  0  0
   -1.4589    1.5126    0.9365 H   0  0  0  0  0  0  0  0  0  0  0  0
    1.2007   -1.1258   -3.3952 H   0  0  0  0  0  0  0  0  0  0  0  0
  8 13  1  0
  7  8  3  0
  6  7  1  0
  4 10  1  0
  4  6  1  0
  2  6  1  0
  5  6  1  0
  3  4  1  0
  4  5  1  0
  1  2  1  0
  1  9  1  0
  2  3  1  0
  5 11  1  0
  5 12  1  0
M  END
$$$$

     RDKit          3D

 18 18  0  0  0  0  0  0  0  0999 V2000
   -1.4562    2.2895   -0.1515 C   0  0  0  0  0  0  0  0  0  0  0  0
   -1.0778    0.9193    0.0810 O   0  0  0  0  0  0  0  0  0  0  0  0
    0.1274    0.5468   -0.6146 C   0  0  0  0  0  0  0  0  0  0  0  0
    0.6399   -0.8547   -0.5164 C   0  0  0  0  0  0  0  0  0  0  0  0
   -0.1654   -1.9093    0.1917 C   0  0  0  0  0  0  0  0  0  0  0  0
   -0.4809   -2.9779   -0.6874 O   0  0  0  0  0  0  0  0  0  0  0  0
    1.3335    0.2566    0.2513 C   0  0  0  0  0  0  0  0  0  0  0  0
    1.2623    0.2586    1.6798 C   0  0  0  0  0  0  0  0  0  0  0  0
    1.2214    0.1173    2.8415 N   0  0  0  0  0  0  0  0  0  0  0  0
   -0.8220    2.8140   -0.8785 H   0  0  0  0  0  0  0  0  0  0  0  0
   -2.4635    2.2882   -0.5333 H   0  0  0  0  0  0  0  0  0  0  0  0
   -1.4320    2.8383    0.7921 H   0  0  0  0  0  0  0  0  0  0  0  0
    0.2930    1.0098   -1.5797 H   0  0  0  0  0  0  0  0  0  0  0  0
    1.1548   -1.2546   -1.3652 H   0  0  0  0  0  0  0  0  0  0  0  0
    0.4247   -2.3154    1.0287 H   0  0  0  0  0  0  0  0  0  0  0  0
   -1.1072   -1.5285    0.5911 H   0  0  0  0  0  0  0  0  0  0  0  0
    0.3496   -3.3336   -1.0011 H   0  0  0  0  0  0  0  0  0  0  0  0
    2.1983    0.8358   -0.1297 H   0  0  0  0  0  0  0  0  0  0  0  0
  7 18  1  0
  3 13  1  0
  3  7  1  0
  7  8  1  0
  4  7  1  0
  4 14  1  0
  3  4  1  0
  2  3  1  0
  8  9  3  0
  4  5  1  0
  1 10  1  0
  1 11  1  0
  1  2  1  0
  1 12  1  0
  6 17  1  0
  5  6  1  0
  5 15  1  0
  5 16  1  0
M  END
$$$$

     RDKit          3D

 17 20  0  0  0  0  0  0  0  0999 V2000
   -0.5706   -1.4854    1.2354 C   0  0  0  0  0  0  0  0  0  0  0  0
   -1.5760   -1.3296    0.0483 C   0  0  0  0  0  0  0  0  0  0  0  0
   -0.7726   -0.8710   -0.8945 C   0  0  0  0  0  0  0  0  0  0  0  0
    0.6412   -0.3208   -0.4982 C   0  0  0  0  0  0  0  0  0  0  0  0
    1.6450    0.8194   -0.0281 C   0  0  0  0  0  0  0  0  0  0  0  0
    0.9674    1.6699   -1.1961 N   0  0  0  0  0  0  0  0  0  0  0  0
   -0.1918    1.0585   -0.3990 C   0  0  0  0  0  0  0  0  0  0  0  0
    0.4652    1.2586    0.9172 C   0  0  0  0  0  0  0  0  0  0  0  0
    0.5341   -0.4704    1.1129 N   0  0  0  0  0  0  0  0  0  0  0  0
   -0.9677   -1.7003    2.3109 H   0  0  0  0  0  0  0  0  0  0  0  0
    0.0627   -2.3544    0.9933 H   0  0  0  0  0  0  0  0  0  0  0  0
   -2.5053   -1.8666   -0.3085 H   0  0  0  0  0  0  0  0  0  0  0  0
   -1.2887   -0.4232   -1.8991 H   0  0  0  0  0  0  0  0  0  0  0  0
    2.7574    0.9609   -0.0077 H   0  0  0  0  0  0  0  0  0  0  0  0
    1.3229    1.3135   -2.2149 H   0  0  0  0  0  0  0  0  0  0  0  0
   -1.1827    1.6190   -0.9070 H   0  0  0  0  0  0  0  0  0  0  0  0
    0.6596    2.1218    1.7351 H   0  0  0  0  0  0  0  0  0  0  0  0
  1 11  1  0
  2 12  1  0
  1  9  1  0
  1  2  1  0
  1 10  1  0
  4  9  1  0
  8  9  1  0
  2  3  2  0
  5 14  1  0
  3  4  1  0
  3 13  1  0
  4  5  1  0
  4  7  1  0
  8 17  1  0
  5  8  1  0
  7  8  1  0
  5  6  1  0
  6  7  1  0
  7 16  1  0
  6 15  1  0
M  END
$$$$

     RDKit          3D

 25 26  0  0  0  0  0  0  0  0999 V2000
   -1.8177   -0.1243    1.7003 C   0  0  0  0  0  0  0  0  0  0  0  0
   -1.4155   -1.3447    0.8914 C   0  0  0  0  0  0  0  0  0  0  0  0
    0.0093   -1.3493    0.3344 C   0  0  0  0  0  0  0  0  0  0  0  0
    0.7355   -0.8804   -1.0527 C   0  0  0  0  0  0  0  0  0  0  0  0
    2.0094   -0.8123   -0.1486 C   0  0  0  0  0  0  0  0  0  0  0  0
    0.8869   -0.1045    0.7252 C   0  0  0  0  0  0  0  0  0  0  0  0
    0.4112    0.6012   -0.6459 C   0  0  0  0  0  0  0  0  0  0  0  0
   -0.9279    0.9601   -1.2774 C   0  0  0  0  0  0  0  0  0  0  0  0
    1.3441    1.8355   -0.8697 C   0  0  0  0  0  0  0  0  0  0  0  0
   -1.9632    0.7586    1.0690 H   0  0  0  0  0  0  0  0  0  0  0  0
   -1.0428    0.1115    2.4274 H   0  0  0  0  0  0  0  0  0  0  0  0
   -2.7392   -0.2920    2.2665 H   0  0  0  0  0  0  0  0  0  0  0  0
   -1.5512   -2.1665    1.6141 H   0  0  0  0  0  0  0  0  0  0  0  0
   -2.1313   -1.5475    0.0817 H   0  0  0  0  0  0  0  0  0  0  0  0
    0.3764   -2.3756    0.6530 H   0  0  0  0  0  0  0  0  0  0  0  0
    0.6098   -1.3568   -2.0467 H   0  0  0  0  0  0  0  0  0  0  0  0
    2.8444   -0.1914   -0.5279 H   0  0  0  0  0  0  0  0  0  0  0  0
    2.3676   -1.8049    0.1738 H   0  0  0  0  0  0  0  0  0  0  0  0
    1.0295    0.2987    1.7141 H   0  0  0  0  0  0  0  0  0  0  0  0
   -1.3205    1.8279   -0.7424 H   0  0  0  0  0  0  0  0  0  0  0  0
   -1.6941    0.1695   -1.2238 H   0  0  0  0  0  0  0  0  0  0  0  0
   -0.7427    1.2094   -2.3416 H   0  0  0  0  0  0  0  0  0  0  0  0
    0.9206    2.5507   -1.6064 H   0  0  0  0  0  0  0  0  0  0  0  0
    2.3596    1.5938   -1.2258 H   0  0  0  0  0  0  0  0  0  0  0  0
    1.4419    2.4334    0.0579 H   0  0  0  0  0  0  0  0  0  0  0  0
  9 24  1  0
  9 25  1  0
  4 16  1  0
  5 17  1  0
  9 23  1  0
  7  9  1  0
  4  5  1  0
  4  7  1  0
  3  4  1  0
  5 18  1  0
  5  6  1  0
  8 21  1  0
  7  8  1  0
  6  7  1  0
  1 11  1  0
  8 22  1  0
  8 20  1  0
  3  6  1  0
  6 19  1  0
  2  3  1  0
  3 15  1  0
  2 13  1  0
  1  2  1  0
  1 10  1  0
  1 12  1  0
  2 14  1  0
M  END
$$$$

     RDKit          3D

 19 21  0  0  0  0  0  0  0  0999 V2000
    0.5086    1.7036   -0.9520 C   0  0  0  0  0  0  0  0  0  0  0  0
   -0.1526    0.4251   -0.6956 C   0  0  0  0  0  0  0  0  0  0  0  0
   -1.7177    0.5829   -0.1999 C   0  0  0  0  0  0  0  0  0  0  0  0
   -1.7790   -0.2733    0.8054 C   0  0  0  0  0  0  0  0  0  0  0  0
   -0.4536   -0.9891    0.8035 C   0  0  0  0  0  0  0  0  0  0  0  0
   -0.0055   -1.5434    2.1821 O   0  0  0  0  0  0  0  0  0  0  0  0
   -0.0330   -1.2184   -0.7968 C   0  0  0  0  0  0  0  0  0  0  0  0
    1.4806   -0.9885   -0.3987 C   0  0  0  0  0  0  0  0  0  0  0  0
    0.7094    0.0420    0.4797 C   0  0  0  0  0  0  0  0  0  0  0  0
    1.6561    1.6509   -1.1241 H   0  0  0  0  0  0  0  0  0  0  0  0
    0.2612    2.1863   -1.8618 H   0  0  0  0  0  0  0  0  0  0  0  0
    0.3766    2.4567   -0.1136 H   0  0  0  0  0  0  0  0  0  0  0  0
   -2.3816    1.3136   -0.6685 H   0  0  0  0  0  0  0  0  0  0  0  0
   -2.6830   -0.4488    1.2823 H   0  0  0  0  0  0  0  0  0  0  0  0
   -0.7817   -1.1033    2.7033 H   0  0  0  0  0  0  0  0  0  0  0  0
   -0.5380   -1.9099   -1.6282 H   0  0  0  0  0  0  0  0  0  0  0  0
    2.1914   -0.6677   -1.2726 H   0  0  0  0  0  0  0  0  0  0  0  0
    2.0089   -1.8110    0.2149 H   0  0  0  0  0  0  0  0  0  0  0  0
    1.3327    0.5923    1.2405 H   0  0  0  0  0  0  0  0  0  0  0  0
  3 13  1  0
  4 14  1  0
  3  4  2  0
  2  3  1  0
  4  5  1  0
  1 11  1  0
  1 10  1  0
  1  2  1  0
  1 12  1  0
  2  9  1  0
  2  7  1  0
  9 19  1  0
  5  9  1  0
  5  6  1  0
  5  7  1  0
  8  9  1  0
  6 15  1  0
  7 16  1  0
  7  8  1  0
  8 18  1  0
  8 17  1  0
M  END
$$$$

     RDKit          3D

 19 21  0  0  0  0  0  0  0  0999 V2000
    0.6633    2.2234    0.3051 C   0  0  0  0  0  0  0  0  0  0  0  0
    0.2726    0.7800    0.4255 C   0  0  0  0  0  0  0  0  0  0  0  0
    1.3585   -0.2763    0.1095 C   0  0  0  0  0  0  0  0  0  0  0  0
    0.5917   -1.4790   -0.4885 C   0  0  0  0  0  0  0  0  0  0  0  0
   -0.8677   -1.1723   -0.2730 C   0  0  0  0  0  0  0  0  0  0  0  0
   -1.8397   -1.9064   -1.0132 O   0  0  0  0  0  0  0  0  0  0  0  0
   -1.2856   -0.4679    1.0079 C   0  0  0  0  0  0  0  0  0  0  0  0
   -0.3743    0.4363    1.6853 O   0  0  0  0  0  0  0  0  0  0  0  0
   -0.9598    0.2904   -0.2324 C   0  0  0  0  0  0  0  0  0  0  0  0
   -0.0665    2.8693    0.7941 H   0  0  0  0  0  0  0  0  0  0  0  0
    1.6444    2.4054    0.7484 H   0  0  0  0  0  0  0  0  0  0  0  0
    0.6930    2.5267   -0.7485 H   0  0  0  0  0  0  0  0  0  0  0  0
    2.1268    0.0903   -0.5873 H   0  0  0  0  0  0  0  0  0  0  0  0
    1.8667   -0.5820    1.0383 H   0  0  0  0  0  0  0  0  0  0  0  0
    0.9006   -2.4311   -0.0221 H   0  0  0  0  0  0  0  0  0  0  0  0
    0.8224   -1.5503   -1.5637 H   0  0  0  0  0  0  0  0  0  0  0  0
   -1.5160   -2.1886   -1.8964 H   0  0  0  0  0  0  0  0  0  0  0  0
   -2.3195   -0.5165    1.3302 H   0  0  0  0  0  0  0  0  0  0  0  0
   -1.7107    0.9486   -0.6191 H   0  0  0  0  0  0  0  0  0  0  0  0
  4 15  1  0
  3 13  1  0
  3  4  1  0
  3 14  1  0
  2  3  1  0
  4 16  1  0
  4  5  1  0
  1 11  1  0
  5  6  1  0
  6 17  1  0
  5  9  1  0
  5  7  1  0
  9 19  1  0
  2  9  1  0
  7  9  1  0
  1  2  1  0
  2  8  1  0
  1 10  1  0
  1 12  1  0
  7  8  1  0
  7 18  1  0
M  END
$$$$

     RDKit          3D

 16 16  0  0  0  0  0  0  0  0999 V2000
    1.9378    1.6779   -0.6306 C   0  0  0  0  0  0  0  0  0  0  0  0
    0.8491    0.7335   -0.2856 C   0  0  0  0  0  0  0  0  0  0  0  0
   -0.4118    0.8186   -0.6515 N   0  0  0  0  0  0  0  0  0  0  0  0
   -1.0413   -0.2695   -0.0887 C   0  0  0  0  0  0  0  0  0  0  0  0
   -2.4892   -0.4948   -0.2854 C   0  0  0  0  0  0  0  0  0  0  0  0
   -0.1434   -1.0247    0.6371 C   0  0  0  0  0  0  0  0  0  0  0  0
   -0.2988   -2.1383    1.3430 O   0  0  0  0  0  0  0  0  0  0  0  0
    1.0547   -0.3736    0.5004 N   0  0  0  0  0  0  0  0  0  0  0  0
    2.8765    1.1490   -0.8200 H   0  0  0  0  0  0  0  0  0  0  0  0
    1.6831    2.2432   -1.5312 H   0  0  0  0  0  0  0  0  0  0  0  0
    2.0971    2.3862    0.1871 H   0  0  0  0  0  0  0  0  0  0  0  0
   -2.8643    0.0826   -1.1362 H   0  0  0  0  0  0  0  0  0  0  0  0
   -2.6940   -1.5532   -0.4762 H   0  0  0  0  0  0  0  0  0  0  0  0
   -3.0449   -0.1866    0.6053 H   0  0  0  0  0  0  0  0  0  0  0  0
    0.5495   -2.4065    1.7316 H   0  0  0  0  0  0  0  0  0  0  0  0
    1.9399   -0.6440    0.9010 H   0  0  0  0  0  0  0  0  0  0  0  0
  5 14  1  0
  5 13  1  0
  5 12  1  0
  4  5  1  0
  3  4  1  0
  2  3  2  0
  1 10  1  0
  4  6  2  0
  1  2  1  0
  2  8  1  0
  1  9  1  0
  1 11  1  0
  6  8  1  0
  6  7  1  0
  8 16  1  0
  7 15  1  0
M  END
$$$$

     RDKit          3D

 20 19  0  0  0  0  0  0  0  0999 V2000
    1.1413    1.9430    0.2197 C   0  0  0  0  0  0  0  0  0  0  0  0
    0.2204    1.4044    1.1969 N   0  0  0  0  0  0  0  0  0  0  0  0
   -0.1277    0.0899    1.3632 C   0  0  0  0  0  0  0  0  0  0  0  0
   -0.6636   -0.2616    2.4114 O   0  0  0  0  0  0  0  0  0  0  0  0
    0.1640   -0.7760    0.3260 N   0  0  0  0  0  0  0  0  0  0  0  0
    0.6206   -2.0931    0.7385 C   0  0  0  0  0  0  0  0  0  0  0  0
   -0.4065   -0.6830   -0.9340 C   0  0  0  0  0  0  0  0  0  0  0  0
   -1.4501    0.3729   -1.2317 C   0  0  0  0  0  0  0  0  0  0  0  0
   -0.0486   -1.5103   -1.8653 N   0  0  0  0  0  0  0  0  0  0  0  0
    1.7465    1.1585   -0.2444 H   0  0  0  0  0  0  0  0  0  0  0  0
    1.8049    2.6444    0.7359 H   0  0  0  0  0  0  0  0  0  0  0  0
    0.5698    2.4903   -0.5337 H   0  0  0  0  0  0  0  0  0  0  0  0
   -0.0374    1.9786    1.9897 H   0  0  0  0  0  0  0  0  0  0  0  0
    1.2398   -2.5621   -0.0360 H   0  0  0  0  0  0  0  0  0  0  0  0
   -0.2593   -2.7263    0.9211 H   0  0  0  0  0  0  0  0  0  0  0  0
    1.2047   -2.0210    1.6602 H   0  0  0  0  0  0  0  0  0  0  0  0
   -2.3328   -0.1254   -1.6621 H   0  0  0  0  0  0  0  0  0  0  0  0
   -1.0510    1.0754   -1.9773 H   0  0  0  0  0  0  0  0  0  0  0  0
   -1.7819    0.9161   -0.3452 H   0  0  0  0  0  0  0  0  0  0  0  0
   -0.5530   -1.3148   -2.7327 H   0  0  0  0  0  0  0  0  0  0  0  0
  8 17  1  0
  1 10  1  0
  8 18  1  0
  8 19  1  0
  7  8  1  0
  3  4  2  0
  1 11  1  0
  1 12  1  0
  1  2  1  0
  2  3  1  0
  3  5  1  0
  2 13  1  0
  5  7  1  0
  7  9  2  3
  5  6  1  0
  9 20  1  0
  6 16  1  0
  6 14  1  0
  6 15  1  0
M  END
$$$$

     RDKit          3D

 18 18  0  0  0  0  0  0  0  0999 V2000
    2.1626    0.2879   -1.0888 C   0  0  0  0  0  0  0  0  0  0  0  0
    0.7498   -0.2858   -0.9513 C   0  0  0  0  0  0  0  0  0  0  0  0
    0.0648   -0.0112    0.3960 C   0  0  0  0  0  0  0  0  0  0  0  0
   -0.3583    1.4356    0.4835 O   0  0  0  0  0  0  0  0  0  0  0  0
   -1.7573    1.0498    0.6230 C   0  0  0  0  0  0  0  0  0  0  0  0
   -1.4521   -0.4684    0.5712 C   0  0  0  0  0  0  0  0  0  0  0  0
   -2.0596   -1.2515   -0.5427 O   0  0  0  0  0  0  0  0  0  0  0  0
    0.8803   -0.2962    1.5902 C   0  0  0  0  0  0  0  0  0  0  0  0
    1.5118   -0.3251    2.5585 N   0  0  0  0  0  0  0  0  0  0  0  0
    2.5200    0.3603   -2.1596 H   0  0  0  0  0  0  0  0  0  0  0  0
    2.8839   -0.3742   -0.5079 H   0  0  0  0  0  0  0  0  0  0  0  0
    2.2011    1.2749   -0.5630 H   0  0  0  0  0  0  0  0  0  0  0  0
    0.2098    0.2330   -1.7981 H   0  0  0  0  0  0  0  0  0  0  0  0
    0.7697   -1.3511   -1.2815 H   0  0  0  0  0  0  0  0  0  0  0  0
   -2.1976    1.4075    1.5778 H   0  0  0  0  0  0  0  0  0  0  0  0
   -2.3172    1.4129   -0.2637 H   0  0  0  0  0  0  0  0  0  0  0  0
   -1.6464   -0.9273    1.5423 H   0  0  0  0  0  0  0  0  0  0  0  0
   -2.1654   -2.1709   -0.1859 H   0  0  0  0  0  0  0  0  0  0  0  0
  8  9  3  0
  3  8  1  0
  6 17  1  0
  5 15  1  0
  5  6  1  0
  3  6  1  0
  6  7  1  0
  4  5  1  0
  5 16  1  0
  3  4  1  0
  2  3  1  0
  7 18  1  0
  1 11  1  0
  2 14  1  0
  1  2  1  0
  2 13  1  0
  1 10  1  0
  1 12  1  0
M  END
$$$$

     RDKit          3D

 14 16  0  0  0  0  0  0  0  0999 V2000
   -2.6428    0.4129    0.6129 O   0  0  0  0  0  0  0  0  0  0  0  0
   -1.4541    0.6734    0.8285 C   0  0  0  0  0  0  0  0  0  0  0  0
   -0.8537    0.5742    2.0992 N   0  0  0  0  0  0  0  0  0  0  0  0
    0.5575    0.3741    1.9969 N   0  0  0  0  0  0  0  0  0  0  0  0
    0.8952    0.6980    0.5946 C   0  0  0  0  0  0  0  0  0  0  0  0
    1.0587   -0.5041   -0.2919 C   0  0  0  0  0  0  0  0  0  0  0  0
    1.1813   -0.3450   -1.7601 C   0  0  0  0  0  0  0  0  0  0  0  0
   -0.1198   -0.0493   -1.1149 C   0  0  0  0  0  0  0  0  0  0  0  0
   -0.4150    0.9069   -0.0902 N   0  0  0  0  0  0  0  0  0  0  0  0
   -1.3471    0.0644    2.8074 H   0  0  0  0  0  0  0  0  0  0  0  0
    1.0277   -1.4656    0.2364 H   0  0  0  0  0  0  0  0  0  0  0  0
    1.3784   -1.2660   -2.3007 H   0  0  0  0  0  0  0  0  0  0  0  0
    1.7500    0.4999   -2.1546 H   0  0  0  0  0  0  0  0  0  0  0  0
   -1.0162   -0.5738   -1.4635 H   0  0  0  0  0  0  0  0  0  0  0  0
  3 10  1  0
  2  9  1  0
  5  9  1  0
  8  9  1  0
  2  3  1  0
  3  4  1  0
  1  2  2  0
  8 14  1  0
  4  5  1  0
  5  6  1  0
  6 11  1  0
  6  8  1  0
  7  8  1  0
  6  7  1  0
  7 12  1  0
  7 13  1  0
M  END
$$$$

     RDKit          3D

 20 21  0  0  0  0  0  0  0  0999 V2000
   -0.0305    2.5292    1.1362 C   0  0  0  0  0  0  0  0  0  0  0  0
   -0.3678    1.1000    0.7306 C   0  0  0  0  0  0  0  0  0  0  0  0
    0.0110    0.9174   -0.6695 N   0  0  0  0  0  0  0  0  0  0  0  0
    0.9191   -0.1861   -0.9279 C   0  0  0  0  0  0  0  0  0  0  0  0
   -0.5378   -0.2505   -1.3207 C   0  0  0  0  0  0  0  0  0  0  0  0
   -0.6658   -1.6153   -0.7415 C   0  0  0  0  0  0  0  0  0  0  0  0
   -1.6181   -1.8066    0.3271 O   0  0  0  0  0  0  0  0  0  0  0  0
    0.8450   -1.5646   -0.3672 C   0  0  0  0  0  0  0  0  0  0  0  0
    1.1989   -1.7333    1.0231 O   0  0  0  0  0  0  0  0  0  0  0  0
   -0.5737    3.2537    0.5204 H   0  0  0  0  0  0  0  0  0  0  0  0
    1.0429    2.7258    1.0369 H   0  0  0  0  0  0  0  0  0  0  0  0
   -0.3163    2.7017    2.1802 H   0  0  0  0  0  0  0  0  0  0  0  0
    0.1411    0.4238    1.4219 H   0  0  0  0  0  0  0  0  0  0  0  0
   -1.4464    0.9598    0.8586 H   0  0  0  0  0  0  0  0  0  0  0  0
    1.6536   -0.0839   -1.7184 H   0  0  0  0  0  0  0  0  0  0  0  0
   -0.7804   -0.2027   -2.3730 H   0  0  0  0  0  0  0  0  0  0  0  0
   -0.8668   -2.3607   -1.5224 H   0  0  0  0  0  0  0  0  0  0  0  0
   -2.1820   -1.0160    0.3087 H   0  0  0  0  0  0  0  0  0  0  0  0
    1.4305   -2.2730   -0.9678 H   0  0  0  0  0  0  0  0  0  0  0  0
    2.1436   -1.5189    1.0648 H   0  0  0  0  0  0  0  0  0  0  0  0
  9 20  1  0
  8  9  1  0
  8 19  1  0
  4  8  1  0
  6  8  1  0
  4 15  1  0
  1 11  1  0
  3  4  1  0
  4  5  1  0
  7 18  1  0
  6  7  1  0
  6 17  1  0
  5  6  1  0
  1 10  1  0
  1 12  1  0
  1  2  1  0
  2 13  1  0
  3  5  1  0
  2  3  1  0
  5 16  1  0
  2 14  1  0
M  END
$$$$

     RDKit          3D

 22 23  0  0  0  0  0  0  0  0999 V2000
   -2.2713    0.9258   -0.1472 C   0  0  0  0  0  0  0  0  0  0  0  0
   -0.8431    0.8918    0.4458 C   0  0  0  0  0  0  0  0  0  0  0  0
    0.2009    1.2613   -0.6309 C   0  0  0  0  0  0  0  0  0  0  0  0
    0.8038    2.5108   -0.3053 O   0  0  0  0  0  0  0  0  0  0  0  0
    1.2541    0.1333   -0.6007 C   0  0  0  0  0  0  0  0  0  0  0  0
    0.6041   -0.9635    0.1760 C   0  0  0  0  0  0  0  0  0  0  0  0
    0.6162   -2.3268   -0.4486 C   0  0  0  0  0  0  0  0  0  0  0  0
    0.5297   -0.7821    1.6846 C   0  0  0  0  0  0  0  0  0  0  0  0
   -0.6310   -0.5246    0.8472 N   0  0  0  0  0  0  0  0  0  0  0  0
   -2.4255    0.2147   -0.9608 H   0  0  0  0  0  0  0  0  0  0  0  0
   -2.4870    1.9305   -0.5379 H   0  0  0  0  0  0  0  0  0  0  0  0
   -3.0277    0.7496    0.6439 H   0  0  0  0  0  0  0  0  0  0  0  0
   -0.8494    1.5883    1.3015 H   0  0  0  0  0  0  0  0  0  0  0  0
   -0.2369    1.3232   -1.6191 H   0  0  0  0  0  0  0  0  0  0  0  0
    1.6677    2.5403   -0.7605 H   0  0  0  0  0  0  0  0  0  0  0  0
    1.4779   -0.1993   -1.6253 H   0  0  0  0  0  0  0  0  0  0  0  0
    2.1973    0.4315   -0.1033 H   0  0  0  0  0  0  0  0  0  0  0  0
   -0.1983   -2.9731   -0.0873 H   0  0  0  0  0  0  0  0  0  0  0  0
    0.5356   -2.2570   -1.5250 H   0  0  0  0  0  0  0  0  0  0  0  0
    1.5580   -2.8612   -0.2067 H   0  0  0  0  0  0  0  0  0  0  0  0
    0.5004   -1.6715    2.2851 H   0  0  0  0  0  0  0  0  0  0  0  0
    1.0248    0.0583    2.1746 H   0  0  0  0  0  0  0  0  0  0  0  0
  4 15  1  0
  3 14  1  0
  3  4  1  0
  3  5  1  0
  2  3  1  0
  5 17  1  0
  5 16  1  0
  1 11  1  0
  5  6  1  0
  1 10  1  0
  2 13  1  0
  1  2  1  0
  2  9  1  0
  1 12  1  0
  8 22  1  0
  6  8  1  0
  6  9  1  0
  6  7  1  0
  8  9  1  0
  8 21  1  0
  7 18  1  0
  7 20  1  0
  7 19  1  0
M  END
$$$$

     RDKit          3D

 15 14  0  0  0  0  0  0  0  0999 V2000
   -0.2581    1.1100   -1.3800 C   0  0  0  0  0  0  0  0  0  0  0  0
    0.4388    1.4184   -0.0843 C   0  0  0  0  0  0  0  0  0  0  0  0
    1.2813    2.3099    0.0114 O   0  0  0  0  0  0  0  0  0  0  0  0
    0.1008    0.6826    1.0186 N   0  0  0  0  0  0  0  0  0  0  0  0
    0.5680   -0.6016    1.1153 C   0  0  0  0  0  0  0  0  0  0  0  0
    1.4570   -0.8812    1.9210 O   0  0  0  0  0  0  0  0  0  0  0  0
   -0.0766   -1.6652    0.2133 C   0  0  0  0  0  0  0  0  0  0  0  0
   -1.4556   -1.4780   -0.0727 O   0  0  0  0  0  0  0  0  0  0  0  0
   -1.2831    0.7522   -1.1990 H   0  0  0  0  0  0  0  0  0  0  0  0
   -0.3362    2.0416   -1.9679 H   0  0  0  0  0  0  0  0  0  0  0  0
    0.3202    0.3701   -1.9502 H   0  0  0  0  0  0  0  0  0  0  0  0
    0.5703    1.1687    1.7789 H   0  0  0  0  0  0  0  0  0  0  0  0
    0.4685   -1.6905   -0.7408 H   0  0  0  0  0  0  0  0  0  0  0  0
    0.0340   -2.6435    0.7116 H   0  0  0  0  0  0  0  0  0  0  0  0
   -1.8292   -0.8935    0.6249 H   0  0  0  0  0  0  0  0  0  0  0  0
  1 10  1  0
  7 14  1  0
  5  6  2  0
  2  3  2  0
  7  8  1  0
  8 15  1  0
  4  5  1  0
  5  7  1  0
  2  4  1  0
  1  2  1  0
  1  9  1  0
  4 12  1  0
  1 11  1  0
  7 13  1  0
M  END
$$$$

     RDKit          3D

 23 24  0  0  0  0  0  0  0  0999 V2000
   -0.8853   -2.4916    1.5122 C   0  0  0  0  0  0  0  0  0  0  0  0
   -0.5562   -1.3524    0.5771 C   0  0  0  0  0  0  0  0  0  0  0  0
    0.8834   -0.8237    0.8188 C   0  0  0  0  0  0  0  0  0  0  0  0
    0.3698    0.5855    0.4074 C   0  0  0  0  0  0  0  0  0  0  0  0
   -1.0242    0.0898    0.9073 C   0  0  0  0  0  0  0  0  0  0  0  0
    0.4036    1.1275   -1.0125 C   0  0  0  0  0  0  0  0  0  0  0  0
   -0.1170    2.5559   -1.1249 C   0  0  0  0  0  0  0  0  0  0  0  0
    1.2829    0.5501   -2.0374 C   0  0  0  0  0  0  0  0  0  0  0  0
   -0.1314    0.2508   -2.0479 O   0  0  0  0  0  0  0  0  0  0  0  0
   -1.5604   -2.1591    2.3221 H   0  0  0  0  0  0  0  0  0  0  0  0
    0.0253   -3.0128    1.8956 H   0  0  0  0  0  0  0  0  0  0  0  0
   -1.3638   -3.2610    0.8924 H   0  0  0  0  0  0  0  0  0  0  0  0
   -0.7364   -1.6972   -0.4127 H   0  0  0  0  0  0  0  0  0  0  0  0
    1.7597   -1.2442    0.3202 H   0  0  0  0  0  0  0  0  0  0  0  0
    1.1182   -0.9106    1.8740 H   0  0  0  0  0  0  0  0  0  0  0  0
    0.8867    1.3331    1.0150 H   0  0  0  0  0  0  0  0  0  0  0  0
   -1.8180    0.5087    0.2527 H   0  0  0  0  0  0  0  0  0  0  0  0
   -1.2299    0.2626    1.9584 H   0  0  0  0  0  0  0  0  0  0  0  0
   -0.7446    2.8910   -0.3125 H   0  0  0  0  0  0  0  0  0  0  0  0
   -0.7670    2.7842   -1.9829 H   0  0  0  0  0  0  0  0  0  0  0  0
    0.7335    3.2711   -1.0941 H   0  0  0  0  0  0  0  0  0  0  0  0
    1.7410   -0.4409   -1.9271 H   0  0  0  0  0  0  0  0  0  0  0  0
    1.7302    1.1831   -2.8013 H   0  0  0  0  0  0  0  0  0  0  0  0
  3 15  1  0
  7 21  1  0
  7 19  1  0
  1 11  1  0
  3 14  1  0
  7 20  1  0
  6  7  1  0
  3  4  1  0
  2  3  1  0
  1 10  1  0
  1  2  1  0
  1 12  1  0
  4 16  1  0
  4  6  1  0
  4  5  1  0
  2 13  1  0
  2  5  1  0
  6  9  1  0
  6  8  1  0
  8  9  1  0
  5 18  1  0
  5 17  1  0
  8 22  1  0
  8 23  1  0
M  END
$$$$

     RDKit          3D

 18 19  0  0  0  0  0  0  0  0999 V2000
   -2.4730    0.6140    1.6267 O   0  0  0  0  0  0  0  0  0  0  0  0
   -1.4000   -0.3261    1.5640 C   0  0  0  0  0  0  0  0  0  0  0  0
   -1.0034   -0.5460    0.1060 C   0  0  0  0  0  0  0  0  0  0  0  0
   -0.1512    0.6219   -0.3897 C   0  0  0  0  0  0  0  0  0  0  0  0
    0.6141    0.3930   -1.6473 N   0  0  0  0  0  0  0  0  0  0  0  0
    1.4502   -0.8717   -1.6263 C   0  0  0  0  0  0  0  0  0  0  0  0
    1.8710    0.4363   -0.9726 C   0  0  0  0  0  0  0  0  0  0  0  0
    1.2306    0.8260    0.2621 C   0  0  0  0  0  0  0  0  0  0  0  0
    1.7559    1.1542    1.3001 O   0  0  0  0  0  0  0  0  0  0  0  0
   -2.5547    0.8570    2.5682 H   0  0  0  0  0  0  0  0  0  0  0  0
   -0.5777    0.0330    2.1907 H   0  0  0  0  0  0  0  0  0  0  0  0
   -1.7571   -1.2771    1.9961 H   0  0  0  0  0  0  0  0  0  0  0  0
   -0.4698   -1.5133    0.0389 H   0  0  0  0  0  0  0  0  0  0  0  0
   -1.9274   -0.6122   -0.4984 H   0  0  0  0  0  0  0  0  0  0  0  0
   -0.7464    1.5485   -0.4100 H   0  0  0  0  0  0  0  0  0  0  0  0
    1.0405   -1.2611   -2.5911 H   0  0  0  0  0  0  0  0  0  0  0  0
    2.4309   -1.1291   -2.1189 H   0  0  0  0  0  0  0  0  0  0  0  0
    2.6674    1.0527   -1.3985 H   0  0  0  0  0  0  0  0  0  0  0  0
  2 11  1  0
  3 14  1  0
  4 15  1  0
  1 10  1  0
  1  2  1  0
  8  9  2  0
  2  3  1  0
  2 12  1  0
  3  4  1  0
  3 13  1  0
  4  8  1  0
  4  5  1  0
  7  8  1  0
  5  7  1  0
  5  6  1  0
  7 18  1  0
  6  7  1  0
  6 17  1  0
  6 16  1  0
M  END
$$$$

     RDKit          3D

 19 20  0  0  0  0  0  0  0  0999 V2000
   -1.8667    0.8686   -0.9438 C   0  0  0  0  0  0  0  0  0  0  0  0
   -0.6492    0.9561    0.2776 C   0  0  0  0  0  0  0  0  0  0  0  0
   -0.6051   -0.6014    0.2055 C   0  0  0  0  0  0  0  0  0  0  0  0
   -0.9430   -1.2780    1.5905 O   0  0  0  0  0  0  0  0  0  0  0  0
    0.9137   -0.3050   -0.3824 C   0  0  0  0  0  0  0  0  0  0  0  0
    0.9728    0.0690   -1.7600 O   0  0  0  0  0  0  0  0  0  0  0  0
    1.8283   -1.0862    0.5507 C   0  0  0  0  0  0  0  0  0  0  0  0
    1.8766    0.0628    1.4401 O   0  0  0  0  0  0  0  0  0  0  0  0
    0.9142    0.8524    0.5734 C   0  0  0  0  0  0  0  0  0  0  0  0
   -2.0097    1.9393   -1.1721 H   0  0  0  0  0  0  0  0  0  0  0  0
   -3.1972    0.6867   -1.1452 H   0  0  0  0  0  0  0  0  0  0  0  0
   -1.5405    0.0283   -1.6892 H   0  0  0  0  0  0  0  0  0  0  0  0
   -1.1350    1.5179    1.1087 H   0  0  0  0  0  0  0  0  0  0  0  0
   -0.9466   -1.3966   -0.4643 H   0  0  0  0  0  0  0  0  0  0  0  0
   -1.1992   -0.5116    2.1992 H   0  0  0  0  0  0  0  0  0  0  0  0
    1.8820   -0.3372   -2.0016 H   0  0  0  0  0  0  0  0  0  0  0  0
    2.7758   -1.3938   -0.0590 H   0  0  0  0  0  0  0  0  0  0  0  0
    1.5358   -1.9286    1.1623 H   0  0  0  0  0  0  0  0  0  0  0  0
    1.3932    1.8572    0.5097 H   0  0  0  0  0  0  0  0  0  0  0  0
  4 15  1  0
  3  4  1  0
  3 14  1  0
  1 11  1  0
  2  3  1  0
  3  5  1  0
  6 16  1  0
  1  2  1  0
  1 10  1  0
  1 12  1  0
  7 18  1  0
  2 13  1  0
  2  9  1  0
  5  6  1  0
  5  7  1  0
  5  9  1  0
  7 17  1  0
  7  8  1  0
  8  9  1  0
  9 19  1  0
M  END
$$$$

     RDKit          3D

 18 17  0  0  0  0  0  0  0  0999 V2000
    0.9630    0.0283    1.7383 C   0  0  0  0  0  0  0  0  0  0  0  0
    1.0208   -0.5170    0.3160 C   0  0  0  0  0  0  0  0  0  0  0  0
   -0.1600   -0.1177   -0.6067 C   0  0  0  0  0  0  0  0  0  0  0  0
   -0.2398    1.4084   -0.7794 C   0  0  0  0  0  0  0  0  0  0  0  0
   -1.4993   -0.6391   -0.0592 C   0  0  0  0  0  0  0  0  0  0  0  0
    0.0685   -0.7268   -1.9401 C   0  0  0  0  0  0  0  0  0  0  0  0
    0.2402   -1.2045   -2.9843 N   0  0  0  0  0  0  0  0  0  0  0  0
    1.8314   -0.3264    2.3038 H   0  0  0  0  0  0  0  0  0  0  0  0
    0.0637   -0.3103    2.2665 H   0  0  0  0  0  0  0  0  0  0  0  0
    0.9858    1.1229    1.7531 H   0  0  0  0  0  0  0  0  0  0  0  0
    1.9696   -0.1855   -0.1332 H   0  0  0  0  0  0  0  0  0  0  0  0
    1.0866   -1.6126    0.3721 H   0  0  0  0  0  0  0  0  0  0  0  0
   -0.5132    1.9050    0.1566 H   0  0  0  0  0  0  0  0  0  0  0  0
    0.7206    1.8200   -1.1102 H   0  0  0  0  0  0  0  0  0  0  0  0
   -0.9887    1.6864   -1.5296 H   0  0  0  0  0  0  0  0  0  0  0  0
   -1.7751   -0.1478    0.8778 H   0  0  0  0  0  0  0  0  0  0  0  0
   -2.3170   -0.4664   -0.7683 H   0  0  0  0  0  0  0  0  0  0  0  0
   -1.4570   -1.7167    0.1269 H   0  0  0  0  0  0  0  0  0  0  0  0
  5 16  1  0
  5 17  1  0
  5 18  1  0
  3  5  1  0
  2 11  1  0
  1  9  1  0
  6  7  3  0
  1  8  1  0
  1  2  1  0
  2  3  1  0
  2 12  1  0
  3  6  1  0
  1 10  1  0
  3  4  1  0
  4 13  1  0
  4 14  1  0
  4 15  1  0
M  END
$$$$

     RDKit          3D

 18 19  0  0  0  0  0  0  0  0999 V2000
   -0.2341    1.5777    1.7547 C   0  0  0  0  0  0  0  0  0  0  0  0
   -0.0022    1.7074    0.2880 O   0  0  0  0  0  0  0  0  0  0  0  0
    0.8872    0.6499   -0.0041 C   0  0  0  0  0  0  0  0  0  0  0  0
    1.1120    0.0763   -1.3672 C   0  0  0  0  0  0  0  0  0  0  0  0
    0.1701   -0.6084   -0.4379 C   0  0  0  0  0  0  0  0  0  0  0  0
    0.1235   -1.6086    0.6205 C   0  0  0  0  0  0  0  0  0  0  0  0
   -0.6182   -2.4317   -0.3280 O   0  0  0  0  0  0  0  0  0  0  0  0
   -1.1281   -1.1452   -0.8662 C   0  0  0  0  0  0  0  0  0  0  0  0
   -1.3120   -1.1042   -2.2826 N   0  0  0  0  0  0  0  0  0  0  0  0
   -1.0133    0.7380    1.8284 H   0  0  0  0  0  0  0  0  0  0  0  0
    0.6359    1.3289    2.3124 H   0  0  0  0  0  0  0  0  0  0  0  0
   -0.6728    2.4889    2.3609 H   0  0  0  0  0  0  0  0  0  0  0  0
    1.8959    0.7816    0.3818 H   0  0  0  0  0  0  0  0  0  0  0  0
    1.3259    1.1297   -1.8180 H   0  0  0  0  0  0  0  0  0  0  0  0
    0.4982    0.5393   -2.3512 H   0  0  0  0  0  0  0  0  0  0  0  0
   -0.6087   -1.5084    1.4656 H   0  0  0  0  0  0  0  0  0  0  0  0
    1.0800   -2.0851    1.0799 H   0  0  0  0  0  0  0  0  0  0  0  0
   -2.1393   -0.5259   -2.6371 H   0  0  0  0  0  0  0  0  0  0  0  0
  9 18  1  0
  8  9  1  0
  7  8  1  0
  5  8  1  0
  6  7  1  0
  3 13  1  0
  5  6  1  0
  3  5  1  0
  4  5  1  0
  4 14  1  0
  6 17  1  0
  6 16  1  0
  3  4  1  0
  2  3  1  0
  4 15  1  0
  1 10  1  0
  1 11  1  0
  1  2  1  0
  1 12  1  0
M  END
$$$$

     RDKit          3D

 19 18  0  0  0  0  0  0  0  0999 V2000
   -0.7966   -0.9057    3.1316 C   0  0  0  0  0  0  0  0  0  0  0  0
   -0.9373   -0.5732    1.7134 C   0  0  0  0  0  0  0  0  0  0  0  0
   -1.0491   -0.2952    0.5494 C   0  0  0  0  0  0  0  0  0  0  0  0
   -1.2074    0.0349   -0.8765 C   0  0  0  0  0  0  0  0  0  0  0  0
    0.0785    0.4768   -1.5956 C   0  0  0  0  0  0  0  0  0  0  0  0
    1.1563   -0.6184   -1.7143 C   0  0  0  0  0  0  0  0  0  0  0  0
    1.8301   -0.9364   -0.5004 O   0  0  0  0  0  0  0  0  0  0  0  0
    0.6308    1.7303   -1.0380 C   0  0  0  0  0  0  0  0  0  0  0  0
    1.0800    2.7565   -0.6036 C   0  0  0  0  0  0  0  0  0  0  0  0
   -0.5535   -1.9648    3.2591 H   0  0  0  0  0  0  0  0  0  0  0  0
   -1.7255   -0.7048    3.6740 H   0  0  0  0  0  0  0  0  0  0  0  0
    0.0030   -0.3184    3.5911 H   0  0  0  0  0  0  0  0  0  0  0  0
   -1.6272   -0.8362   -1.3963 H   0  0  0  0  0  0  0  0  0  0  0  0
   -1.9578    0.8321   -0.9656 H   0  0  0  0  0  0  0  0  0  0  0  0
   -0.2289    0.7044   -2.6272 H   0  0  0  0  0  0  0  0  0  0  0  0
    1.9257   -0.2961   -2.4249 H   0  0  0  0  0  0  0  0  0  0  0  0
    0.7216   -1.5424   -2.1110 H   0  0  0  0  0  0  0  0  0  0  0  0
    1.1682   -1.2071    0.1587 H   0  0  0  0  0  0  0  0  0  0  0  0
    1.4892    3.6636   -0.2240 H   0  0  0  0  0  0  0  0  0  0  0  0
  6 17  1  0
  6 16  1  0
  6  7  1  0
  5  6  1  0
  7 18  1  0
  4 13  1  0
  1 11  1  0
  3  4  1  0
  4  5  1  0
  4 14  1  0
  2  3  3  0
  5  8  1  0
  5 15  1  0
  1  2  1  0
  1 12  1  0
  1 10  1  0
  8  9  3  0
  9 19  1  0
M  END
$$$$

     RDKit          3D

 19 19  0  0  0  0  0  0  0  0999 V2000
    2.3390    0.9430   -1.9934 C   0  0  0  0  0  0  0  0  0  0  0  0
    1.9326    1.2353   -0.8946 C   0  0  0  0  0  0  0  0  0  0  0  0
    1.3141    1.5202    0.4658 C   0  0  0  0  0  0  0  0  0  0  0  0
    0.2075    0.4598    0.6315 C   0  0  0  0  0  0  0  0  0  0  0  0
    0.4522   -0.7825    1.0588 C   0  0  0  0  0  0  0  0  0  0  0  0
   -0.4635   -1.9691    0.7143 C   0  0  0  0  0  0  0  0  0  0  0  0
   -1.7695   -1.5217    0.5009 O   0  0  0  0  0  0  0  0  0  0  0  0
   -1.7959   -0.5267   -0.5573 C   0  0  0  0  0  0  0  0  0  0  0  0
   -1.1528    0.7521   -0.0442 C   0  0  0  0  0  0  0  0  0  0  0  0
    2.7536    0.5914   -2.9344 H   0  0  0  0  0  0  0  0  0  0  0  0
    0.8977    2.5491    0.5487 H   0  0  0  0  0  0  0  0  0  0  0  0
    2.0223    1.4133    1.2731 H   0  0  0  0  0  0  0  0  0  0  0  0
    0.7123   -0.7880    2.2188 H   0  0  0  0  0  0  0  0  0  0  0  0
   -0.0659   -2.5244   -0.1700 H   0  0  0  0  0  0  0  0  0  0  0  0
   -0.5028   -2.6637    1.5719 H   0  0  0  0  0  0  0  0  0  0  0  0
   -2.8627   -0.3742   -0.8021 H   0  0  0  0  0  0  0  0  0  0  0  0
   -1.2769   -0.9311   -1.4610 H   0  0  0  0  0  0  0  0  0  0  0  0
   -1.7188    1.1941    0.7661 H   0  0  0  0  0  0  0  0  0  0  0  0
   -1.0223    1.4230   -0.8930 H   0  0  0  0  0  0  0  0  0  0  0  0
  5 13  1  0
  6 14  1  0
  6 15  1  0
  5  6  1  0
  4  5  2  0
  3 11  1  0
  6  7  1  0
  3  4  1  0
  2  3  1  0
  3 12  1  0
  4  9  1  0
  7  8  1  0
  1  2  3  0
  1 10  1  0
  8 16  1  0
  8  9  1  0
  8 17  1  0
  9 19  1  0
  9 18  1  0
M  END
$$$$

     RDKit          3D

 27 26  0  0  0  0  0  0  0  0999 V2000
    2.3057    2.5885   -0.8593 C   0  0  0  0  0  0  0  0  0  0  0  0
    0.8454    2.3803   -0.4972 C   0  0  0  0  0  0  0  0  0  0  0  0
    0.0802    1.3792   -1.3953 C   0  0  0  0  0  0  0  0  0  0  0  0
    0.6945    0.1053   -1.1207 O   0  0  0  0  0  0  0  0  0  0  0  0
   -0.1131   -1.0533   -1.4885 C   0  0  0  0  0  0  0  0  0  0  0  0
   -0.2849   -1.9586   -0.1948 C   0  0  0  0  0  0  0  0  0  0  0  0
   -0.5125   -1.3760    1.2156 C   0  0  0  0  0  0  0  0  0  0  0  0
   -1.4033   -0.1868    1.1620 C   0  0  0  0  0  0  0  0  0  0  0  0
   -1.0125   -2.3480    2.2133 C   0  0  0  0  0  0  0  0  0  0  0  0
    2.8390    1.6303   -0.9982 H   0  0  0  0  0  0  0  0  0  0  0  0
    2.8695    3.1327    0.0207 H   0  0  0  0  0  0  0  0  0  0  0  0
    2.4488    3.2271   -1.7235 H   0  0  0  0  0  0  0  0  0  0  0  0
    0.3207    3.2635   -0.4712 H   0  0  0  0  0  0  0  0  0  0  0  0
    0.8394    2.0789    0.5245 H   0  0  0  0  0  0  0  0  0  0  0  0
   -1.0460    1.4103   -1.2430 H   0  0  0  0  0  0  0  0  0  0  0  0
    0.2699    1.6827   -2.4108 H   0  0  0  0  0  0  0  0  0  0  0  0
   -1.1319   -0.7632   -1.8987 H   0  0  0  0  0  0  0  0  0  0  0  0
    0.4572   -1.6376   -2.2791 H   0  0  0  0  0  0  0  0  0  0  0  0
    0.5905   -2.5765   -0.1872 H   0  0  0  0  0  0  0  0  0  0  0  0
   -1.1102   -2.7092   -0.4813 H   0  0  0  0  0  0  0  0  0  0  0  0
    0.4554   -1.0200    1.5154 H   0  0  0  0  0  0  0  0  0  0  0  0
   -2.2871   -0.4169    0.5153 H   0  0  0  0  0  0  0  0  0  0  0  0
   -0.9097    0.6069    0.5832 H   0  0  0  0  0  0  0  0  0  0  0  0
   -1.7014    0.3033    2.0973 H   0  0  0  0  0  0  0  0  0  0  0  0
   -2.1741   -2.4376    2.1852 H   0  0  0  0  0  0  0  0  0  0  0  0
   -0.5690   -3.3249    1.9699 H   0  0  0  0  0  0  0  0  0  0  0  0
   -0.7601   -1.9805    3.2464 H   0  0  0  0  0  0  0  0  0  0  0  0
  8 23  1  0
  7 21  1  0
  9 26  1  0
  8 24  1  0
  7  8  1  0
  8 22  1  0
  7  9  1  0
  6  7  1  0
  9 25  1  0
  9 27  1  0
  5 17  1  0
  5 18  1  0
  5  6  1  0
  4  5  1  0
  6 20  1  0
  6 19  1  0
  3 15  1  0
  3  4  1  0
  3 16  1  0
  2  3  1  0
  1 11  1  0
  2 14  1  0
  1  2  1  0
  2 13  1  0
  1 10  1  0
  1 12  1  0
M  END
$$$$

     RDKit          3D

 22 22  0  0  0  0  0  0  0  0999 V2000
   -0.0875    2.3587   -1.3760 C   0  0  0  0  0  0  0  0  0  0  0  0
   -0.0619    1.1290   -0.5465 N   0  0  0  0  0  0  0  0  0  0  0  0
    1.1536    0.8350    0.1992 C   0  0  0  0  0  0  0  0  0  0  0  0
    1.4591   -0.6554    0.3836 C   0  0  0  0  0  0  0  0  0  0  0  0
    0.4949   -1.3102    1.4006 C   0  0  0  0  0  0  0  0  0  0  0  0
   -0.8210   -1.7794    0.7509 C   0  0  0  0  0  0  0  0  0  0  0  0
   -1.2871   -0.9749   -0.4443 C   0  0  0  0  0  0  0  0  0  0  0  0
   -1.2793    0.5390   -0.3151 C   0  0  0  0  0  0  0  0  0  0  0  0
   -2.3113    1.1825   -0.1819 O   0  0  0  0  0  0  0  0  0  0  0  0
    0.2076    1.9985   -2.3949 H   0  0  0  0  0  0  0  0  0  0  0  0
   -1.0883    2.8078   -1.4545 H   0  0  0  0  0  0  0  0  0  0  0  0
    0.6872    3.1079   -1.0592 H   0  0  0  0  0  0  0  0  0  0  0  0
    1.0363    1.2949    1.1765 H   0  0  0  0  0  0  0  0  0  0  0  0
    2.0059    1.2924   -0.3044 H   0  0  0  0  0  0  0  0  0  0  0  0
    1.4498   -1.1913   -0.5869 H   0  0  0  0  0  0  0  0  0  0  0  0
    2.4880   -0.7270    0.7726 H   0  0  0  0  0  0  0  0  0  0  0  0
    0.9943   -2.1664    1.8654 H   0  0  0  0  0  0  0  0  0  0  0  0
    0.2814   -0.5765    2.2193 H   0  0  0  0  0  0  0  0  0  0  0  0
   -0.6822   -2.8290    0.4156 H   0  0  0  0  0  0  0  0  0  0  0  0
   -1.6225   -1.8170    1.5346 H   0  0  0  0  0  0  0  0  0  0  0  0
   -0.7123   -1.2291   -1.3633 H   0  0  0  0  0  0  0  0  0  0  0  0
   -2.3047   -1.2895   -0.6912 H   0  0  0  0  0  0  0  0  0  0  0  0
  5 18  1  0
  4 16  1  0
  6 20  1  0
  4  5  1  0
  5  6  1  0
  5 17  1  0
  4 15  1  0
  6 19  1  0
  3  4  1  0
  6  7  1  0
  1 11  1  0
  2  3  1  0
  3 14  1  0
  3 13  1  0
  7  8  1  0
  7 22  1  0
  7 21  1  0
  1  2  1  0
  2  8  1  0
  1 10  1  0
  1 12  1  0
  8  9  2  0
M  END
$$$$

     RDKit          3D

 17 17  0  0  0  0  0  0  0  0999 V2000
   -0.9563   -1.0249    1.6861 N   0  0  0  0  0  0  0  0  0  0  0  0
   -1.4953   -0.5928    0.3683 C   0  0  0  0  0  0  0  0  0  0  0  0
   -0.4871    0.1960   -0.5409 C   0  0  0  0  0  0  0  0  0  0  0  0
    0.2431    1.1430    0.2791 O   0  0  0  0  0  0  0  0  0  0  0  0
    1.6106    0.9522   -0.0730 C   0  0  0  0  0  0  0  0  0  0  0  0
    1.6919   -0.4921   -0.4868 C   0  0  0  0  0  0  0  0  0  0  0  0
    0.4481   -0.7261   -1.1449 O   0  0  0  0  0  0  0  0  0  0  0  0
   -1.2507    0.9050   -1.6022 C   0  0  0  0  0  0  0  0  0  0  0  0
   -1.8811    1.4624   -2.4070 N   0  0  0  0  0  0  0  0  0  0  0  0
   -0.3467   -0.2697    2.0191 H   0  0  0  0  0  0  0  0  0  0  0  0
   -1.7362   -1.0600    2.3584 H   0  0  0  0  0  0  0  0  0  0  0  0
   -2.3605    0.0510    0.5901 H   0  0  0  0  0  0  0  0  0  0  0  0
   -1.8598   -1.4890   -0.1446 H   0  0  0  0  0  0  0  0  0  0  0  0
    2.2535    1.1876    0.7839 H   0  0  0  0  0  0  0  0  0  0  0  0
    1.8449    1.6274   -0.9042 H   0  0  0  0  0  0  0  0  0  0  0  0
    1.7500   -1.1698    0.3730 H   0  0  0  0  0  0  0  0  0  0  0  0
    2.5316   -0.7002   -1.1546 H   0  0  0  0  0  0  0  0  0  0  0  0
  2 13  1  0
  1 10  1  0
  1  2  1  0
  1 11  1  0
  2 12  1  0
  2  3  1  0
  3  8  1  0
  3  7  1  0
  3  4  1  0
  8  9  3  0
  6  7  1  0
  4  5  1  0
  6 17  1  0
  6 16  1  0
  5  6  1  0
  5 14  1  0
  5 15  1  0
M  END
$$$$

     RDKit          3D

 16 16  0  0  0  0  0  0  0  0999 V2000
    1.4353   -1.0422   -0.3889 C   0  0  0  0  0  0  0  0  0  0  0  0
    0.2909   -0.2702    0.0926 N   0  0  0  0  0  0  0  0  0  0  0  0
   -0.3823    0.6535   -0.6679 C   0  0  0  0  0  0  0  0  0  0  0  0
   -0.0231    0.9648   -1.9332 N   0  0  0  0  0  0  0  0  0  0  0  0
   -1.4621    1.0946    0.0594 C   0  0  0  0  0  0  0  0  0  0  0  0
   -1.4677    0.3974    1.2875 C   0  0  0  0  0  0  0  0  0  0  0  0
   -0.3797   -0.4510    1.2946 C   0  0  0  0  0  0  0  0  0  0  0  0
   -0.0370   -1.3376    2.2285 O   0  0  0  0  0  0  0  0  0  0  0  0
    2.1449   -0.3707   -0.8909 H   0  0  0  0  0  0  0  0  0  0  0  0
    1.9623   -1.5285    0.4448 H   0  0  0  0  0  0  0  0  0  0  0  0
    1.0488   -1.7968   -1.0754 H   0  0  0  0  0  0  0  0  0  0  0  0
   -0.6030    1.6444   -2.4157 H   0  0  0  0  0  0  0  0  0  0  0  0
    0.9446    1.2376   -2.0621 H   0  0  0  0  0  0  0  0  0  0  0  0
   -2.1847    1.8122   -0.2716 H   0  0  0  0  0  0  0  0  0  0  0  0
   -2.1971    0.4906    2.0779 H   0  0  0  0  0  0  0  0  0  0  0  0
    0.9099   -1.4981    2.2205 H   0  0  0  0  0  0  0  0  0  0  0  0
  4 13  1  0
  4 12  1  0
  3  4  1  0
  5 14  1  0
  3  5  2  0
  2  3  1  0
  1 10  1  0
  5  6  1  0
  1  2  1  0
  2  7  1  0
  1  9  1  0
  1 11  1  0
  6  7  2  0
  6 15  1  0
  7  8  1  0
  8 16  1  0
M  END
$$$$

     RDKit          3D

 17 17  0  0  0  0  0  0  0  0999 V2000
    1.4317    1.3624   -0.7127 O   0  0  0  0  0  0  0  0  0  0  0  0
    0.0293    1.3583   -0.4342 C   0  0  0  0  0  0  0  0  0  0  0  0
   -0.1639    1.5247    1.0463 C   0  0  0  0  0  0  0  0  0  0  0  0
    0.0915    0.2278    1.5784 O   0  0  0  0  0  0  0  0  0  0  0  0
   -0.4848   -0.6989    0.6410 C   0  0  0  0  0  0  0  0  0  0  0  0
    0.2225   -1.9786    0.6635 C   0  0  0  0  0  0  0  0  0  0  0  0
    0.7556   -3.0417    0.7664 C   0  0  0  0  0  0  0  0  0  0  0  0
   -0.5764    0.0047   -0.7386 C   0  0  0  0  0  0  0  0  0  0  0  0
    0.1404   -0.6133   -1.8006 O   0  0  0  0  0  0  0  0  0  0  0  0
    1.6200    0.5163   -1.1868 H   0  0  0  0  0  0  0  0  0  0  0  0
   -0.4326    2.1725   -1.0159 H   0  0  0  0  0  0  0  0  0  0  0  0
   -1.2056    1.7824    1.2545 H   0  0  0  0  0  0  0  0  0  0  0  0
    0.4984    2.2368    1.5163 H   0  0  0  0  0  0  0  0  0  0  0  0
   -1.5172   -0.8749    0.9926 H   0  0  0  0  0  0  0  0  0  0  0  0
    1.2069   -3.9524    1.0843 H   0  0  0  0  0  0  0  0  0  0  0  0
   -1.6317    0.0370   -1.0533 H   0  0  0  0  0  0  0  0  0  0  0  0
    0.0159   -0.0631   -2.6012 H   0  0  0  0  0  0  0  0  0  0  0  0
  8 16  1  0
  8  9  1  0
  9 17  1  0
  2 11  1  0
  2  8  1  0
  5  8  1  0
  1 10  1  0
  1  2  1  0
  2  3  1  0
  5 14  1  0
  4  5  1  0
  5  6  1  0
  3 12  1  0
  3  4  1  0
  3 13  1  0
  6  7  3  0
  7 15  1  0
M  END
$$$$

     RDKit          3D

 17 16  0  0  0  0  0  0  0  0999 V2000
   -0.0156    3.2648    0.5301 C   0  0  0  0  0  0  0  0  0  0  0  0
    0.3548    1.8560    0.5516 C   0  0  0  0  0  0  0  0  0  0  0  0
    0.6913    0.7008    0.5540 C   0  0  0  0  0  0  0  0  0  0  0  0
    1.1416   -0.6749    0.4848 C   0  0  0  0  0  0  0  0  0  0  0  0
    2.2634   -0.9513    0.9049 O   0  0  0  0  0  0  0  0  0  0  0  0
    0.2390   -1.6760   -0.2086 C   0  0  0  0  0  0  0  0  0  0  0  0
   -1.1546   -1.6601    0.3847 C   0  0  0  0  0  0  0  0  0  0  0  0
    0.2380   -1.4284   -1.7001 C   0  0  0  0  0  0  0  0  0  0  0  0
   -0.7396   -1.5781   -2.4262 O   0  0  0  0  0  0  0  0  0  0  0  0
    0.7420    3.8564    0.0047 H   0  0  0  0  0  0  0  0  0  0  0  0
   -0.9607    3.4099   -0.0036 H   0  0  0  0  0  0  0  0  0  0  0  0
   -0.1280    3.6572    1.5464 H   0  0  0  0  0  0  0  0  0  0  0  0
    0.6918   -2.6616   -0.0574 H   0  0  0  0  0  0  0  0  0  0  0  0
   -1.6768   -0.7111    0.1561 H   0  0  0  0  0  0  0  0  0  0  0  0
   -1.1230   -1.7787    1.4716 H   0  0  0  0  0  0  0  0  0  0  0  0
   -1.7618   -2.4870   -0.0340 H   0  0  0  0  0  0  0  0  0  0  0  0
    1.1982   -1.1379   -2.1590 H   0  0  0  0  0  0  0  0  0  0  0  0
  8  9  2  0
  1 10  1  0
  8 17  1  0
  6  8  1  0
  1 11  1  0
  1  2  1  0
  1 12  1  0
  2  3  3  0
  3  4  1  0
  6 13  1  0
  4  6  1  0
  6  7  1  0
  4  5  2  0
  7 14  1  0
  7 16  1  0
  7 15  1  0
M  END
$$$$

     RDKit          3D

 16 18  0  0  0  0  0  0  0  0999 V2000
    0.4455    2.2400    0.5891 O   0  0  0  0  0  0  0  0  0  0  0  0
    0.3408    0.7791    0.2665 C   0  0  0  0  0  0  0  0  0  0  0  0
   -1.0059    0.1933    0.0627 C   0  0  0  0  0  0  0  0  0  0  0  0
   -1.1829   -0.9153   -1.1911 C   0  0  0  0  0  0  0  0  0  0  0  0
    0.3576   -0.9188   -1.4570 C   0  0  0  0  0  0  0  0  0  0  0  0
    0.9878   -1.3990   -2.5027 O   0  0  0  0  0  0  0  0  0  0  0  0
    1.2841   -0.2105   -0.2605 C   0  0  0  0  0  0  0  0  0  0  0  0
    1.1032   -1.0314    1.0294 N   0  0  0  0  0  0  0  0  0  0  0  0
   -0.1031   -0.1270    1.3553 C   0  0  0  0  0  0  0  0  0  0  0  0
   -0.5026    2.4750    0.7823 H   0  0  0  0  0  0  0  0  0  0  0  0
   -2.0135    0.7744    0.3206 H   0  0  0  0  0  0  0  0  0  0  0  0
   -1.4917   -0.4606   -2.1285 H   0  0  0  0  0  0  0  0  0  0  0  0
   -2.1810   -1.0315   -0.5230 H   0  0  0  0  0  0  0  0  0  0  0  0
    2.3689    0.0684   -0.4977 H   0  0  0  0  0  0  0  0  0  0  0  0
    1.8161   -0.7603    1.8092 H   0  0  0  0  0  0  0  0  0  0  0  0
   -0.2235    0.3243    2.3454 H   0  0  0  0  0  0  0  0  0  0  0  0
  5  6  2  0
  4 13  1  0
  4  5  1  0
  5  7  1  0
  4 12  1  0
  3  4  1  0
  7 14  1  0
  2  7  1  0
  7  8  1  0
  2  3  1  0
  3 11  1  0
  3  9  1  0
  1  2  1  0
  2  9  1  0
  1 10  1  0
  8 15  1  0
  8  9  1  0
  9 16  1  0
M  END
$$$$

     RDKit          3D

 18 19  0  0  0  0  0  0  0  0999 V2000
    1.7751    2.0499    1.0573 O   0  0  0  0  0  0  0  0  0  0  0  0
    0.7864    1.3917    0.8717 C   0  0  0  0  0  0  0  0  0  0  0  0
    0.5097    0.0455    1.4537 C   0  0  0  0  0  0  0  0  0  0  0  0
   -0.2664   -0.8871    0.5671 C   0  0  0  0  0  0  0  0  0  0  0  0
    0.4180   -1.7153   -0.4794 C   0  0  0  0  0  0  0  0  0  0  0  0
   -0.2076   -0.8383   -1.5108 C   0  0  0  0  0  0  0  0  0  0  0  0
   -1.0386   -0.2356   -0.4714 N   0  0  0  0  0  0  0  0  0  0  0  0
   -1.1324    1.1744   -0.4750 C   0  0  0  0  0  0  0  0  0  0  0  0
   -0.2812    2.0078    0.0955 C   0  0  0  0  0  0  0  0  0  0  0  0
    1.4236   -0.4066    1.7408 H   0  0  0  0  0  0  0  0  0  0  0  0
    0.0003    0.1906    2.3965 H   0  0  0  0  0  0  0  0  0  0  0  0
   -0.9941   -1.4467    1.1888 H   0  0  0  0  0  0  0  0  0  0  0  0
    1.5134   -1.7180   -0.4696 H   0  0  0  0  0  0  0  0  0  0  0  0
    0.0800   -2.7540   -0.5271 H   0  0  0  0  0  0  0  0  0  0  0  0
    0.3908   -0.1067   -2.0045 H   0  0  0  0  0  0  0  0  0  0  0  0
   -0.7875   -1.3863   -2.2636 H   0  0  0  0  0  0  0  0  0  0  0  0
   -1.9325    1.5594   -1.1061 H   0  0  0  0  0  0  0  0  0  0  0  0
   -0.2571    3.0753   -0.0642 H   0  0  0  0  0  0  0  0  0  0  0  0
  4 12  1  0
  5 13  1  0
  4  7  1  0
  4  5  1  0
  3  4  1  0
  3 10  1  0
  7  8  1  0
  6  7  1  0
  6 15  1  0
  1  2  2  0
  2  9  1  0
  2  3  1  0
  5  6  1  0
  5 14  1  0
  8  9  2  0
  9 18  1  0
  8 17  1  0
  3 11  1  0
  6 16  1  0
M  END
$$$$

     RDKit          3D

 17 17  0  0  0  0  0  0  0  0999 V2000
   -1.8892   -2.2755    3.2458 O   0  0  0  0  0  0  0  0  0  0  0  0
   -1.8705   -1.1692    2.7038 C   0  0  0  0  0  0  0  0  0  0  0  0
   -2.0929   -0.9562    1.2287 C   0  0  0  0  0  0  0  0  0  0  0  0
   -0.9255   -0.3034    0.6199 C   0  0  0  0  0  0  0  0  0  0  0  0
    0.0466    0.1781    0.1027 C   0  0  0  0  0  0  0  0  0  0  0  0
    1.2395    0.7101   -0.5263 C   0  0  0  0  0  0  0  0  0  0  0  0
    1.0230    1.6717   -1.6970 C   0  0  0  0  0  0  0  0  0  0  0  0
    1.6696    0.7722   -2.6336 O   0  0  0  0  0  0  0  0  0  0  0  0
    1.9015   -0.1900   -1.5764 C   0  0  0  0  0  0  0  0  0  0  0  0
   -1.7078   -0.2514    3.3002 H   0  0  0  0  0  0  0  0  0  0  0  0
   -2.2820   -1.9242    0.7561 H   0  0  0  0  0  0  0  0  0  0  0  0
   -2.9890   -0.3408    1.1016 H   0  0  0  0  0  0  0  0  0  0  0  0
    1.9577    1.0978    0.2059 H   0  0  0  0  0  0  0  0  0  0  0  0
    1.5634    2.6253   -1.6249 H   0  0  0  0  0  0  0  0  0  0  0  0
   -0.0169    1.8690   -1.9869 H   0  0  0  0  0  0  0  0  0  0  0  0
    1.3996   -1.1428   -1.7901 H   0  0  0  0  0  0  0  0  0  0  0  0
    2.9728   -0.3709   -1.4295 H   0  0  0  0  0  0  0  0  0  0  0  0
  9 17  1  0
  6 13  1  0
  8  9  1  0
  6  9  1  0
  9 16  1  0
  7  8  1  0
  7 14  1  0
  6  7  1  0
  5  6  1  0
  7 15  1  0
  4  5  3  0
  2 10  1  0
  3  4  1  0
  1  2  2  0
  2  3  1  0
  3 12  1  0
  3 11  1  0
M  END
$$$$

     RDKit          3D

 20 21  0  0  0  0  0  0  0  0999 V2000
   -0.5244    1.8321   -0.7453 C   0  0  0  0  0  0  0  0  0  0  0  0
    0.3259    0.7864   -0.1545 C   0  0  0  0  0  0  0  0  0  0  0  0
    1.5265    1.1982    0.6329 N   0  0  0  0  0  0  0  0  0  0  0  0
    0.4631    0.5296    1.2727 C   0  0  0  0  0  0  0  0  0  0  0  0
    0.1135   -0.9254    1.1311 C   0  0  0  0  0  0  0  0  0  0  0  0
    1.0489   -1.8785    1.6728 O   0  0  0  0  0  0  0  0  0  0  0  0
    0.0764   -0.6721   -0.4180 C   0  0  0  0  0  0  0  0  0  0  0  0
   -1.3018   -1.0305   -0.9865 C   0  0  0  0  0  0  0  0  0  0  0  0
    1.0597   -1.3639   -1.2135 O   0  0  0  0  0  0  0  0  0  0  0  0
   -1.5431    1.7776   -0.3784 H   0  0  0  0  0  0  0  0  0  0  0  0
   -0.5000    1.7351   -1.8382 H   0  0  0  0  0  0  0  0  0  0  0  0
   -0.1136    2.8047   -0.5267 H   0  0  0  0  0  0  0  0  0  0  0  0
    2.2249    1.1343   -0.1325 H   0  0  0  0  0  0  0  0  0  0  0  0
   -0.1565    1.0959    2.0004 H   0  0  0  0  0  0  0  0  0  0  0  0
   -0.8838   -1.1318    1.5534 H   0  0  0  0  0  0  0  0  0  0  0  0
    1.2228   -1.5244    2.5630 H   0  0  0  0  0  0  0  0  0  0  0  0
   -2.1310   -0.7309   -0.3304 H   0  0  0  0  0  0  0  0  0  0  0  0
   -1.3875   -2.1288   -1.1321 H   0  0  0  0  0  0  0  0  0  0  0  0
   -1.4400   -0.5552   -1.9849 H   0  0  0  0  0  0  0  0  0  0  0  0
    1.9202   -0.9524   -0.9852 H   0  0  0  0  0  0  0  0  0  0  0  0
  8 18  1  0
  8 19  1  0
  9 20  1  0
  8 17  1  0
  7  8  1  0
  7  9  1  0
  5  7  1  0
  2  7  1  0
  1 11  1  0
  1 10  1  0
  5 15  1  0
  5  6  1  0
  6 16  1  0
  4  5  1  0
  1  2  1  0
  2  3  1  0
  2  4  1  0
  1 12  1  0
  3  4  1  0
  3 13  1  0
  4 14  1  0
M  END
$$$$

     RDKit          3D

 20 20  0  0  0  0  0  0  0  0999 V2000
    0.2878   -1.0277    1.6186 C   0  0  0  0  0  0  0  0  0  0  0  0
    0.2933   -1.0966    0.1741 N   0  0  0  0  0  0  0  0  0  0  0  0
    1.2851   -0.3155   -0.5389 C   0  0  0  0  0  0  0  0  0  0  0  0
    1.1308    1.2112   -0.4970 C   0  0  0  0  0  0  0  0  0  0  0  0
   -0.2520    1.6864   -0.1113 C   0  0  0  0  0  0  0  0  0  0  0  0
   -1.2348    1.1899   -1.0134 O   0  0  0  0  0  0  0  0  0  0  0  0
   -1.8630    0.0334   -0.6863 C   0  0  0  0  0  0  0  0  0  0  0  0
   -3.0883   -0.0479   -0.7451 O   0  0  0  0  0  0  0  0  0  0  0  0
   -1.0061   -1.2172   -0.4979 C   0  0  0  0  0  0  0  0  0  0  0  0
   -0.7240   -1.0624    2.0447 H   0  0  0  0  0  0  0  0  0  0  0  0
    0.8384   -1.8867    2.0261 H   0  0  0  0  0  0  0  0  0  0  0  0
    0.7640   -0.1202    2.0082 H   0  0  0  0  0  0  0  0  0  0  0  0
    2.2842   -0.5618   -0.1633 H   0  0  0  0  0  0  0  0  0  0  0  0
    1.3107   -0.6404   -1.5918 H   0  0  0  0  0  0  0  0  0  0  0  0
    1.8798    1.6469    0.1804 H   0  0  0  0  0  0  0  0  0  0  0  0
    1.3550    1.5845   -1.5108 H   0  0  0  0  0  0  0  0  0  0  0  0
   -0.5061    1.4370    0.9215 H   0  0  0  0  0  0  0  0  0  0  0  0
   -0.2865    2.7843   -0.1764 H   0  0  0  0  0  0  0  0  0  0  0  0
   -0.8580   -1.6466   -1.4976 H   0  0  0  0  0  0  0  0  0  0  0  0
   -1.6104   -1.9503    0.0561 H   0  0  0  0  0  0  0  0  0  0  0  0
  4 15  1  0
  3 13  1  0
  3 14  1  0
  3  4  1  0
  4 16  1  0
  4  5  1  0
  2  3  1  0
  5 17  1  0
  5 18  1  0
  5  6  1  0
  1  2  1  0
  2  9  1  0
  1 11  1  0
  9 20  1  0
  6  7  1  0
  1 10  1  0
  1 12  1  0
  7  9  1  0
  9 19  1  0
  7  8  2  0
M  END
$$$$

     RDKit          3D

 20 22  0  0  0  0  0  0  0  0999 V2000
    2.3270    1.1403   -0.7104 C   0  0  0  0  0  0  0  0  0  0  0  0
    1.0138    0.4307   -0.6535 C   0  0  0  0  0  0  0  0  0  0  0  0
    1.4106   -0.9396   -0.9966 O   0  0  0  0  0  0  0  0  0  0  0  0
   -0.0107    0.6250    0.5960 C   0  0  0  0  0  0  0  0  0  0  0  0
    0.6064   -0.1217    1.7702 N   0  0  0  0  0  0  0  0  0  0  0  0
   -0.8182   -0.3431    1.7439 C   0  0  0  0  0  0  0  0  0  0  0  0
   -1.5437   -0.9573    0.6453 C   0  0  0  0  0  0  0  0  0  0  0  0
   -1.6890   -0.8684   -0.8114 C   0  0  0  0  0  0  0  0  0  0  0  0
   -1.4048    0.3589   -0.0857 C   0  0  0  0  0  0  0  0  0  0  0  0
    2.7406    0.9015   -1.7215 H   0  0  0  0  0  0  0  0  0  0  0  0
    2.0802    2.2104   -0.6246 H   0  0  0  0  0  0  0  0  0  0  0  0
    2.9293    0.6559    0.1155 H   0  0  0  0  0  0  0  0  0  0  0  0
    0.4676    0.8434   -1.5552 H   0  0  0  0  0  0  0  0  0  0  0  0
    0.8521   -1.5448   -0.4341 H   0  0  0  0  0  0  0  0  0  0  0  0
    0.7057    0.4132    2.6093 H   0  0  0  0  0  0  0  0  0  0  0  0
   -1.3607   -0.0376    2.5786 H   0  0  0  0  0  0  0  0  0  0  0  0
   -2.4740   -1.5374    0.8890 H   0  0  0  0  0  0  0  0  0  0  0  0
   -2.6255   -1.2105   -1.3348 H   0  0  0  0  0  0  0  0  0  0  0  0
   -1.0622   -1.2284   -1.7506 H   0  0  0  0  0  0  0  0  0  0  0  0
   -2.1443    1.2094   -0.2693 H   0  0  0  0  0  0  0  0  0  0  0  0
  5 15  1  0
  1 11  1  0
  1 12  1  0
  5  6  1  0
  4  5  1  0
  6 16  1  0
  1 10  1  0
  1  2  1  0
  4  6  1  0
  6  7  1  0
  8 19  1  0
  2  4  1  0
  4  9  1  0
  2 13  1  0
  2  3  1  0
  7  8  1  0
  7 17  1  0
  7  9  1  0
  8  9  1  0
  8 18  1  0
  9 20  1  0
  3 14  1  0
M  END
$$$$

     RDKit          3D

 16 15  0  0  0  0  0  0  0  0999 V2000
    2.7127    1.3277   -0.4320 N   0  0  0  0  0  0  0  0  0  0  0  0
    1.5136    2.1137   -0.4747 C   0  0  0  0  0  0  0  0  0  0  0  0
    0.5316    1.4468   -1.2154 O   0  0  0  0  0  0  0  0  0  0  0  0
   -0.5735    1.0872   -0.3624 C   0  0  0  0  0  0  0  0  0  0  0  0
   -1.2485   -0.1913   -0.8983 C   0  0  0  0  0  0  0  0  0  0  0  0
   -1.0912   -1.2711    0.0837 C   0  0  0  0  0  0  0  0  0  0  0  0
   -0.8375   -2.0503    0.9743 C   0  0  0  0  0  0  0  0  0  0  0  0
   -0.4638   -2.8808    2.0937 C   0  0  0  0  0  0  0  0  0  0  0  0
   -1.2092   -3.0330    3.0574 O   0  0  0  0  0  0  0  0  0  0  0  0
    3.1209    1.2820   -1.3696 H   0  0  0  0  0  0  0  0  0  0  0  0
    1.6664    3.1060   -0.8965 H   0  0  0  0  0  0  0  0  0  0  0  0
   -1.3011    1.9199   -0.3677 H   0  0  0  0  0  0  0  0  0  0  0  0
   -0.2421    0.9391    0.6606 H   0  0  0  0  0  0  0  0  0  0  0  0
   -0.8123   -0.4635   -1.8636 H   0  0  0  0  0  0  0  0  0  0  0  0
   -2.3293   -0.0226   -1.0504 H   0  0  0  0  0  0  0  0  0  0  0  0
    0.5633   -3.3098    2.0609 H   0  0  0  0  0  0  0  0  0  0  0  0
  4 12  1  0
  5 15  1  0
  8 16  1  0
  8  9  2  0
  7  8  1  0
  2 11  1  0
  6  7  3  0
  3  4  1  0
  4  5  1  0
  4 13  1  0
  5  6  1  0
  2  3  1  0
  1  2  1  0
  1 10  1  0
  5 14  1  0
M  END
$$$$

     RDKit          3D

 16 19  0  0  0  0  0  0  0  0999 V2000
   -0.2889    2.1127    0.7810 O   0  0  0  0  0  0  0  0  0  0  0  0
    0.2596    0.8466    0.4171 C   0  0  0  0  0  0  0  0  0  0  0  0
    1.1452    0.6707   -0.8497 C   0  0  0  0  0  0  0  0  0  0  0  0
    0.6238   -0.8194   -0.8118 C   0  0  0  0  0  0  0  0  0  0  0  0
    0.8379   -1.3871    0.5647 N   0  0  0  0  0  0  0  0  0  0  0  0
    0.5487   -0.2234    1.3961 C   0  0  0  0  0  0  0  0  0  0  0  0
   -0.5543   -1.0454    0.9174 C   0  0  0  0  0  0  0  0  0  0  0  0
   -0.6778   -0.2236   -0.2586 C   0  0  0  0  0  0  0  0  0  0  0  0
   -1.8594    0.1067   -0.9717 O   0  0  0  0  0  0  0  0  0  0  0  0
   -1.2578    1.9855    0.7130 H   0  0  0  0  0  0  0  0  0  0  0  0
    2.2213    0.7848   -0.6963 H   0  0  0  0  0  0  0  0  0  0  0  0
    0.8444    1.2514   -1.7332 H   0  0  0  0  0  0  0  0  0  0  0  0
    0.6039   -1.4739   -1.6838 H   0  0  0  0  0  0  0  0  0  0  0  0
    0.7943   -0.0768    2.4292 H   0  0  0  0  0  0  0  0  0  0  0  0
   -1.1855   -1.8195    1.2900 H   0  0  0  0  0  0  0  0  0  0  0  0
   -2.0555   -0.6892   -1.5033 H   0  0  0  0  0  0  0  0  0  0  0  0
  3 11  1  0
  3 12  1  0
  3  4  1  0
  2  3  1  0
  4 13  1  0
  9 16  1  0
  8  9  1  0
  4  8  1  0
  4  5  1  0
  2  8  1  0
  7  8  1  0
  1  2  1  0
  1 10  1  0
  2  6  1  0
  5  6  1  0
  5  7  1  0
  6  7  1  0
  6 14  1  0
  7 15  1  0
M  END
$$$$

     RDKit          3D

 17 19  0  0  0  0  0  0  0  0999 V2000
   -1.7387    0.5995    0.6575 C   0  0  0  0  0  0  0  0  0  0  0  0
   -1.0208    0.3900   -0.5844 N   0  0  0  0  0  0  0  0  0  0  0  0
   -0.5948   -0.9683   -0.7933 C   0  0  0  0  0  0  0  0  0  0  0  0
    0.7720   -1.2055   -0.2885 C   0  0  0  0  0  0  0  0  0  0  0  0
    0.6140   -0.3083   -1.4745 C   0  0  0  0  0  0  0  0  0  0  0  0
    0.3935    0.8353   -0.5803 C   0  0  0  0  0  0  0  0  0  0  0  0
    1.3874    0.0035    0.3902 C   0  0  0  0  0  0  0  0  0  0  0  0
    1.1906    0.2507    1.8112 C   0  0  0  0  0  0  0  0  0  0  0  0
    1.1868    0.5112    2.9591 N   0  0  0  0  0  0  0  0  0  0  0  0
   -1.7043    1.6479    0.9376 H   0  0  0  0  0  0  0  0  0  0  0  0
   -1.4257    0.0189    1.4961 H   0  0  0  0  0  0  0  0  0  0  0  0
   -2.8105    0.3524    0.5329 H   0  0  0  0  0  0  0  0  0  0  0  0
   -1.1635   -1.6857   -1.3698 H   0  0  0  0  0  0  0  0  0  0  0  0
    1.4051   -2.0565   -0.4556 H   0  0  0  0  0  0  0  0  0  0  0  0
    0.4549   -0.3441   -2.5469 H   0  0  0  0  0  0  0  0  0  0  0  0
    0.5850    1.9074   -0.8036 H   0  0  0  0  0  0  0  0  0  0  0  0
    2.4688    0.0516    0.1124 H   0  0  0  0  0  0  0  0  0  0  0  0
  3 13  1  0
  4 14  1  0
  3  4  1  0
  3  5  1  0
  2  3  1  0
  4  5  1  0
  4  7  1  0
  1 11  1  0
  5 15  1  0
  5  6  1  0
  1 10  1  0
  1  2  1  0
  2  6  1  0
  1 12  1  0
  7 17  1  0
  6  7  1  0
  7  8  1  0
  6 16  1  0
  8  9  3  0
M  END
$$$$

     RDKit          3D

 13 14  0  0  0  0  0  0  0  0999 V2000
    1.1355    2.2486   -0.4630 O   0  0  0  0  0  0  0  0  0  0  0  0
    0.4545    1.2505   -0.5268 C   0  0  0  0  0  0  0  0  0  0  0  0
    0.6699    0.0787   -1.3587 C   0  0  0  0  0  0  0  0  0  0  0  0
    0.6073   -1.2780   -0.7459 C   0  0  0  0  0  0  0  0  0  0  0  0
   -0.6176   -0.4940   -0.8967 N   0  0  0  0  0  0  0  0  0  0  0  0
   -0.8314    0.6150    0.0580 C   0  0  0  0  0  0  0  0  0  0  0  0
   -0.7647    0.2215    1.4489 C   0  0  0  0  0  0  0  0  0  0  0  0
   -0.7189   -0.0975    2.6063 C   0  0  0  0  0  0  0  0  0  0  0  0
    0.7628    0.1991   -2.4288 H   0  0  0  0  0  0  0  0  0  0  0  0
    0.7001   -2.1370   -1.4003 H   0  0  0  0  0  0  0  0  0  0  0  0
    1.0079   -1.4340    0.2486 H   0  0  0  0  0  0  0  0  0  0  0  0
   -1.7243    1.2069   -0.1752 H   0  0  0  0  0  0  0  0  0  0  0  0
   -0.6811   -0.3796    3.6336 H   0  0  0  0  0  0  0  0  0  0  0  0
  6 12  1  0
  3  9  1  0
  3  5  1  0
  5  6  1  0
  4  5  1  0
  2  3  1  0
  3  4  1  0
  1  2  2  0
  2  6  1  0
  6  7  1  0
  4 10  1  0
  4 11  1  0
  7  8  3  0
  8 13  1  0
M  END
$$$$

     RDKit          3D

 18 19  0  0  0  0  0  0  0  0999 V2000
    1.5628    1.3159    2.0175 C   0  0  0  0  0  0  0  0  0  0  0  0
    0.7760    0.6474    1.0062 N   0  0  0  0  0  0  0  0  0  0  0  0
    0.5729   -0.7153    0.9265 C   0  0  0  0  0  0  0  0  0  0  0  0
   -0.2198   -0.9187   -0.1691 C   0  0  0  0  0  0  0  0  0  0  0  0
   -0.8713   -1.9893   -0.9323 C   0  0  0  0  0  0  0  0  0  0  0  0
   -1.5789   -1.3224   -2.0337 O   0  0  0  0  0  0  0  0  0  0  0  0
   -1.3480    0.1251   -1.9339 C   0  0  0  0  0  0  0  0  0  0  0  0
   -0.4977    0.3141   -0.7532 C   0  0  0  0  0  0  0  0  0  0  0  0
    0.1208    1.2917   -0.0249 C   0  0  0  0  0  0  0  0  0  0  0  0
    2.4617    1.7152    1.5410 H   0  0  0  0  0  0  0  0  0  0  0  0
    0.9628    2.1227    2.4465 H   0  0  0  0  0  0  0  0  0  0  0  0
    1.8363    0.6021    2.7984 H   0  0  0  0  0  0  0  0  0  0  0  0
    1.0061   -1.3981    1.6454 H   0  0  0  0  0  0  0  0  0  0  0  0
   -1.6099   -2.5363   -0.3401 H   0  0  0  0  0  0  0  0  0  0  0  0
   -0.1526   -2.6884   -1.3690 H   0  0  0  0  0  0  0  0  0  0  0  0
   -2.3205    0.6145   -1.8327 H   0  0  0  0  0  0  0  0  0  0  0  0
   -0.8613    0.4524   -2.8568 H   0  0  0  0  0  0  0  0  0  0  0  0
    0.1608    2.3673   -0.1358 H   0  0  0  0  0  0  0  0  0  0  0  0
  3 13  1  0
  5 15  1  0
  5 14  1  0
  4  5  1  0
  5  6  1  0
  3  4  2  0
  2  3  1  0
  1 11  1  0
  4  8  1  0
  6  7  1  0
  1  2  1  0
  2  9  1  0
  1 10  1  0
  1 12  1  0
  8  9  2  0
  7  8  1  0
  9 18  1  0
  7 16  1  0
  7 17  1  0
M  END
$$$$

     RDKit          3D

 18 20  0  0  0  0  0  0  0  0999 V2000
    1.0578   -0.7789   -2.4352 O   0  0  0  0  0  0  0  0  0  0  0  0
    0.7344   -1.0248   -1.2779 C   0  0  0  0  0  0  0  0  0  0  0  0
    1.0555   -2.1682   -0.2966 C   0  0  0  0  0  0  0  0  0  0  0  0
    0.5197   -1.2887    0.7851 N   0  0  0  0  0  0  0  0  0  0  0  0
    0.0818   -0.2586   -0.1493 C   0  0  0  0  0  0  0  0  0  0  0  0
    0.3689    1.2248    0.1369 C   0  0  0  0  0  0  0  0  0  0  0  0
   -0.9026    1.4727   -0.7528 C   0  0  0  0  0  0  0  0  0  0  0  0
   -1.3350    0.2489    0.1432 C   0  0  0  0  0  0  0  0  0  0  0  0
   -0.6691    1.1190    1.3223 C   0  0  0  0  0  0  0  0  0  0  0  0
    2.1296   -2.3781   -0.2031 H   0  0  0  0  0  0  0  0  0  0  0  0
    0.4811   -3.0721   -0.4848 H   0  0  0  0  0  0  0  0  0  0  0  0
    1.2274   -0.9670    1.4623 H   0  0  0  0  0  0  0  0  0  0  0  0
    1.2941    1.7743    0.1407 H   0  0  0  0  0  0  0  0  0  0  0  0
   -1.4630    2.3944   -0.5963 H   0  0  0  0  0  0  0  0  0  0  0  0
   -0.8562    1.2646   -1.8362 H   0  0  0  0  0  0  0  0  0  0  0  0
   -2.2867   -0.2694    0.1898 H   0  0  0  0  0  0  0  0  0  0  0  0
   -1.1571    2.0634    1.6093 H   0  0  0  0  0  0  0  0  0  0  0  0
   -0.2806    0.6439    2.2427 H   0  0  0  0  0  0  0  0  0  0  0  0
  8 16  1  0
  7  8  1  0
  8  9  1  0
  5  8  1  0
  7 14  1  0
  7 15  1  0
  6  7  1  0
  3 10  1  0
  9 18  1  0
  1  2  2  0
  9 17  1  0
  6  9  1  0
  4 12  1  0
  2  5  1  0
  2  3  1  0
  4  5  1  0
  5  6  1  0
  3  4  1  0
  3 11  1  0
  6 13  1  0
M  END
$$$$

     RDKit          3D

 17 17  0  0  0  0  0  0  0  0999 V2000
    1.7128    1.6848   -1.1618 C   0  0  0  0  0  0  0  0  0  0  0  0
    1.2779    0.5097   -0.3212 C   0  0  0  0  0  0  0  0  0  0  0  0
    2.1256   -0.1286    0.3073 O   0  0  0  0  0  0  0  0  0  0  0  0
   -0.1419    0.1717   -0.2149 C   0  0  0  0  0  0  0  0  0  0  0  0
   -1.1825    0.7625   -0.9011 C   0  0  0  0  0  0  0  0  0  0  0  0
   -2.3677    0.2001   -0.5666 O   0  0  0  0  0  0  0  0  0  0  0  0
   -2.1105   -0.7615    0.3461 C   0  0  0  0  0  0  0  0  0  0  0  0
   -0.7591   -0.8373    0.6082 C   0  0  0  0  0  0  0  0  0  0  0  0
   -0.0893   -1.7628    1.5519 C   0  0  0  0  0  0  0  0  0  0  0  0
    1.8422    2.5679   -0.5187 H   0  0  0  0  0  0  0  0  0  0  0  0
    0.9943    1.9029   -1.9629 H   0  0  0  0  0  0  0  0  0  0  0  0
    2.6728    1.4434   -1.6447 H   0  0  0  0  0  0  0  0  0  0  0  0
   -1.2487    1.5473   -1.6391 H   0  0  0  0  0  0  0  0  0  0  0  0
   -2.9813   -1.2869    0.7166 H   0  0  0  0  0  0  0  0  0  0  0  0
    0.4874   -1.2027    2.2939 H   0  0  0  0  0  0  0  0  0  0  0  0
   -0.8194   -2.3744    2.0928 H   0  0  0  0  0  0  0  0  0  0  0  0
    0.5873   -2.4361    1.0141 H   0  0  0  0  0  0  0  0  0  0  0  0
  1 11  1  0
  9 15  1  0
  1 10  1  0
  2  3  2  0
  1  2  1  0
  1 12  1  0
  2  4  1  0
  8  9  1  0
  9 17  1  0
  9 16  1  0
  4  8  1  0
  4  5  2  0
  7  8  2  0
  5 13  1  0
  5  6  1  0
  6  7  1  0
  7 14  1  0
M  END
$$$$

     RDKit          3D

 19 21  0  0  0  0  0  0  0  0999 V2000
   -2.0863   -1.6637    1.8505 O   0  0  0  0  0  0  0  0  0  0  0  0
   -1.4346   -0.6784    1.5090 C   0  0  0  0  0  0  0  0  0  0  0  0
   -0.4922   -0.7996    0.3477 C   0  0  0  0  0  0  0  0  0  0  0  0
    0.2104   -2.1380    0.2790 C   0  0  0  0  0  0  0  0  0  0  0  0
    1.0152   -0.8890    0.3157 C   0  0  0  0  0  0  0  0  0  0  0  0
    1.0678    0.1536   -0.7702 C   0  0  0  0  0  0  0  0  0  0  0  0
    1.0342    1.6624   -0.3563 C   0  0  0  0  0  0  0  0  0  0  0  0
   -0.4671    1.6746   -0.6895 C   0  0  0  0  0  0  0  0  0  0  0  0
   -0.4974    0.1785   -0.7601 C   0  0  0  0  0  0  0  0  0  0  0  0
   -1.6228    0.3724    1.8248 H   0  0  0  0  0  0  0  0  0  0  0  0
    0.3768   -2.7828    1.1777 H   0  0  0  0  0  0  0  0  0  0  0  0
   -0.0590   -2.7107   -0.6097 H   0  0  0  0  0  0  0  0  0  0  0  0
    1.5634   -0.5754    1.1839 H   0  0  0  0  0  0  0  0  0  0  0  0
    1.3515   -0.0878   -1.7984 H   0  0  0  0  0  0  0  0  0  0  0  0
    1.2370    1.8762    0.7225 H   0  0  0  0  0  0  0  0  0  0  0  0
    1.6407    2.3507   -0.9897 H   0  0  0  0  0  0  0  0  0  0  0  0
   -1.1193    2.1188    0.0442 H   0  0  0  0  0  0  0  0  0  0  0  0
   -0.6956    2.1549   -1.6415 H   0  0  0  0  0  0  0  0  0  0  0  0
   -1.0230   -0.2167   -1.6396 H   0  0  0  0  0  0  0  0  0  0  0  0
  6 14  1  0
  5 13  1  0
  5  6  1  0
  6  7  1  0
  6  9  1  0
  3  5  1  0
  4  5  1  0
  7 15  1  0
  9 19  1  0
  2 10  1  0
  2  3  1  0
  1  2  2  0
  7 16  1  0
  7  8  1  0
  3  9  1  0
  8  9  1  0
  3  4  1  0
  4 11  1  0
  4 12  1  0
  8 17  1  0
  8 18  1  0
M  END
$$$$

     RDKit          3D

 14 14  0  0  0  0  0  0  0  0999 V2000
   -0.0516    0.9376   -1.9405 C   0  0  0  0  0  0  0  0  0  0  0  0
    0.3994   -0.2850   -1.3353 O   0  0  0  0  0  0  0  0  0  0  0  0
   -0.0617   -0.3910   -0.0727 C   0  0  0  0  0  0  0  0  0  0  0  0
    0.7471   -0.4255    1.0367 C   0  0  0  0  0  0  0  0  0  0  0  0
    2.0639   -0.3419    1.2026 O   0  0  0  0  0  0  0  0  0  0  0  0
   -0.1075   -0.5609    2.0961 N   0  0  0  0  0  0  0  0  0  0  0  0
   -1.4140   -0.6407    1.7380 N   0  0  0  0  0  0  0  0  0  0  0  0
   -1.3781   -0.5577    0.4032 C   0  0  0  0  0  0  0  0  0  0  0  0
    0.2788    0.9371   -2.9853 H   0  0  0  0  0  0  0  0  0  0  0  0
    0.4063    1.8052   -1.4351 H   0  0  0  0  0  0  0  0  0  0  0  0
   -1.1511    1.0287   -1.9312 H   0  0  0  0  0  0  0  0  0  0  0  0
    2.4362   -0.2693    0.3035 H   0  0  0  0  0  0  0  0  0  0  0  0
    0.1370   -0.6099    3.0806 H   0  0  0  0  0  0  0  0  0  0  0  0
   -2.3047   -0.6267   -0.1606 H   0  0  0  0  0  0  0  0  0  0  0  0
  1 10  1  0
  5 12  1  0
  1  2  1  0
  2  3  1  0
  1  9  1  0
  1 11  1  0
  4  5  1  0
  3  4  2  0
  3  8  1  0
  4  6  1  0
  8 14  1  0
  7  8  2  0
  6 13  1  0
  6  7  1  0
M  END
$$$$

     RDKit          3D

 20 20  0  0  0  0  0  0  0  0999 V2000
   -0.3356    1.1460    1.6448 C   0  0  0  0  0  0  0  0  0  0  0  0
   -0.1475   -0.3571    1.4405 C   0  0  0  0  0  0  0  0  0  0  0  0
    0.3600   -0.8161    0.0689 C   0  0  0  0  0  0  0  0  0  0  0  0
    1.6294   -0.1500   -0.3391 N   0  0  0  0  0  0  0  0  0  0  0  0
    0.9198    0.6355   -1.3664 C   0  0  0  0  0  0  0  0  0  0  0  0
   -0.2390   -0.3848   -1.3254 C   0  0  0  0  0  0  0  0  0  0  0  0
   -1.5190    0.3299   -1.2103 N   0  0  0  0  0  0  0  0  0  0  0  0
    0.5539   -2.2669    0.1122 C   0  0  0  0  0  0  0  0  0  0  0  0
    0.6344   -3.4210    0.1222 N   0  0  0  0  0  0  0  0  0  0  0  0
    0.6311    1.6413    1.7845 H   0  0  0  0  0  0  0  0  0  0  0  0
   -0.8402    1.6300    0.8021 H   0  0  0  0  0  0  0  0  0  0  0  0
   -0.9641    1.3307    2.5376 H   0  0  0  0  0  0  0  0  0  0  0  0
   -1.1170   -0.8733    1.6585 H   0  0  0  0  0  0  0  0  0  0  0  0
    0.5416   -0.7063    2.2273 H   0  0  0  0  0  0  0  0  0  0  0  0
    2.0550    0.4501    0.3841 H   0  0  0  0  0  0  0  0  0  0  0  0
    0.6743    1.6561   -1.0435 H   0  0  0  0  0  0  0  0  0  0  0  0
    1.4535    0.6797   -2.3116 H   0  0  0  0  0  0  0  0  0  0  0  0
   -0.2064   -1.1324   -2.1301 H   0  0  0  0  0  0  0  0  0  0  0  0
   -1.7576    0.8695   -2.0448 H   0  0  0  0  0  0  0  0  0  0  0  0
   -2.3265   -0.2608   -1.0115 H   0  0  0  0  0  0  0  0  0  0  0  0
  8  9  3  0
  3  8  1  0
  5 16  1  0
  6 18  1  0
  5  6  1  0
  3  6  1  0
  6  7  1  0
  4  5  1  0
  5 17  1  0
  3  4  1  0
  2  3  1  0
  4 15  1  0
  1 11  1  0
  2 14  1  0
  7 19  1  0
  1  2  1  0
  2 13  1  0
  7 20  1  0
  1 10  1  0
  1 12  1  0
M  END
$$$$

     RDKit          3D

 19 20  0  0  0  0  0  0  0  0999 V2000
   -1.8707   -0.7184   -1.6374 C   0  0  0  0  0  0  0  0  0  0  0  0
   -0.8045    0.2837   -1.4552 C   0  0  0  0  0  0  0  0  0  0  0  0
    0.1679    1.1640   -1.2464 C   0  0  0  0  0  0  0  0  0  0  0  0
    1.0954    1.1925    0.0010 C   0  0  0  0  0  0  0  0  0  0  0  0
    1.1933    2.4979    0.5250 O   0  0  0  0  0  0  0  0  0  0  0  0
    0.3270    0.3181    1.0254 C   0  0  0  0  0  0  0  0  0  0  0  0
    0.4393   -0.9181    2.2699 C   0  0  0  0  0  0  0  0  0  0  0  0
    1.2310    0.2229    2.2160 O   0  0  0  0  0  0  0  0  0  0  0  0
   -0.1317   -0.6601   -0.1018 C   0  0  0  0  0  0  0  0  0  0  0  0
   -1.5026   -1.7439   -1.8873 H   0  0  0  0  0  0  0  0  0  0  0  0
   -2.5692   -0.7603   -0.7972 H   0  0  0  0  0  0  0  0  0  0  0  0
   -2.5006   -0.4155   -2.4417 H   0  0  0  0  0  0  0  0  0  0  0  0
    0.3807    1.9536   -1.9945 H   0  0  0  0  0  0  0  0  0  0  0  0
    2.0900    0.6987   -0.1872 H   0  0  0  0  0  0  0  0  0  0  0  0
    2.0639    2.5957    0.9507 H   0  0  0  0  0  0  0  0  0  0  0  0
   -0.5214   -1.1528    2.8534 H   0  0  0  0  0  0  0  0  0  0  0  0
    1.0869   -1.8296    2.0601 H   0  0  0  0  0  0  0  0  0  0  0  0
    0.6987   -1.3351   -0.4932 H   0  0  0  0  0  0  0  0  0  0  0  0
   -0.8734   -1.3933    0.3405 H   0  0  0  0  0  0  0  0  0  0  0  0
  3 13  1  0
  5 15  1  0
  4  5  1  0
  3  4  1  0
  2  3  2  0
  1 11  1  0
  4 14  1  0
  4  6  1  0
  1  2  1  0
  2  9  1  0
  1 10  1  0
  1 12  1  0
  6  8  1  0
  6  9  1  0
  6  7  1  0
  7  8  1  0
  7 17  1  0
  9 19  1  0
  9 18  1  0
  7 16  1  0
M  END
$$$$

     RDKit          3D

 21 22  0  0  0  0  0  0  0  0999 V2000
    0.8008    2.2251   -1.4575 C   0  0  0  0  0  0  0  0  0  0  0  0
   -0.2810    1.7407   -0.4847 C   0  0  0  0  0  0  0  0  0  0  0  0
   -0.1491    0.2694   -0.1219 C   0  0  0  0  0  0  0  0  0  0  0  0
   -0.5514   -0.0878    1.2988 C   0  0  0  0  0  0  0  0  0  0  0  0
   -0.2548   -1.5466    1.0475 C   0  0  0  0  0  0  0  0  0  0  0  0
   -1.1501   -1.7814   -0.1641 C   0  0  0  0  0  0  0  0  0  0  0  0
   -0.9940   -0.5740   -0.9374 O   0  0  0  0  0  0  0  0  0  0  0  0
    1.1826   -1.4546    0.5486 C   0  0  0  0  0  0  0  0  0  0  0  0
    1.2006   -0.2297   -0.2121 O   0  0  0  0  0  0  0  0  0  0  0  0
    0.6073    3.2629   -1.7488 H   0  0  0  0  0  0  0  0  0  0  0  0
    0.8262    1.6250   -2.3790 H   0  0  0  0  0  0  0  0  0  0  0  0
    1.7960    2.1882   -0.9869 H   0  0  0  0  0  0  0  0  0  0  0  0
   -1.2696    1.9326   -0.9285 H   0  0  0  0  0  0  0  0  0  0  0  0
   -0.2056    2.3621    0.4210 H   0  0  0  0  0  0  0  0  0  0  0  0
    0.0984    0.3560    2.0573 H   0  0  0  0  0  0  0  0  0  0  0  0
   -1.6012    0.1213    1.5365 H   0  0  0  0  0  0  0  0  0  0  0  0
   -0.4025   -2.2350    1.8799 H   0  0  0  0  0  0  0  0  0  0  0  0
   -2.2043   -1.8782    0.1204 H   0  0  0  0  0  0  0  0  0  0  0  0
   -0.8399   -2.6417   -0.7624 H   0  0  0  0  0  0  0  0  0  0  0  0
    1.9170   -1.3674    1.3767 H   0  0  0  0  0  0  0  0  0  0  0  0
    1.4746   -2.2867   -0.1034 H   0  0  0  0  0  0  0  0  0  0  0  0
  6 18  1  0
  6 19  1  0
  5  6  1  0
  6  7  1  0
  5 17  1  0
  8 21  1  0
  5  8  1  0
  4  5  1  0
  3  7  1  0
  8 20  1  0
  8  9  1  0
  4 16  1  0
  3  4  1  0
  4 15  1  0
  3  9  1  0
  2  3  1  0
  1 11  1  0
  1  2  1  0
  2 14  1  0
  2 13  1  0
  1 10  1  0
  1 12  1  0
M  END
$$$$

     RDKit          3D

 23 23  0  0  0  0  0  0  0  0999 V2000
    2.4556    0.3563    0.5719 C   0  0  0  0  0  0  0  0  0  0  0  0
    1.3030    1.2141    0.1409 C   0  0  0  0  0  0  0  0  0  0  0  0
    0.2447    0.5476   -0.7119 C   0  0  0  0  0  0  0  0  0  0  0  0
    0.3665   -0.8589   -0.9498 O   0  0  0  0  0  0  0  0  0  0  0  0
   -0.8894   -1.3438   -1.5081 C   0  0  0  0  0  0  0  0  0  0  0  0
   -1.8665   -0.2332   -1.3308 C   0  0  0  0  0  0  0  0  0  0  0  0
   -1.1237    0.6467   -0.2365 C   0  0  0  0  0  0  0  0  0  0  0  0
   -1.5050   -0.1198    0.9383 O   0  0  0  0  0  0  0  0  0  0  0  0
   -0.5225   -0.5985    1.8269 C   0  0  0  0  0  0  0  0  0  0  0  0
    2.5144    0.3253    1.7368 H   0  0  0  0  0  0  0  0  0  0  0  0
    3.4496    0.6582    0.1719 H   0  0  0  0  0  0  0  0  0  0  0  0
    2.4059   -0.7060    0.3106 H   0  0  0  0  0  0  0  0  0  0  0  0
    0.9202    1.6802    1.0406 H   0  0  0  0  0  0  0  0  0  0  0  0
    1.7110    2.0038   -0.4670 H   0  0  0  0  0  0  0  0  0  0  0  0
    0.2638    1.0019   -1.6565 H   0  0  0  0  0  0  0  0  0  0  0  0
   -1.5459   -1.9511   -0.7849 H   0  0  0  0  0  0  0  0  0  0  0  0
   -0.6428   -2.0303   -2.4329 H   0  0  0  0  0  0  0  0  0  0  0  0
   -2.0456    0.5874   -2.1276 H   0  0  0  0  0  0  0  0  0  0  0  0
   -2.9618   -0.6065   -0.8406 H   0  0  0  0  0  0  0  0  0  0  0  0
   -1.5336    1.6698   -0.1843 H   0  0  0  0  0  0  0  0  0  0  0  0
   -1.1249   -0.8414    2.8054 H   0  0  0  0  0  0  0  0  0  0  0  0
   -0.0327   -1.5370    1.3838 H   0  0  0  0  0  0  0  0  0  0  0  0
    0.1597    0.1353    2.3037 H   0  0  0  0  0  0  0  0  0  0  0  0
  2 14  1  0
  1 11  1  0
  9 21  1  0
  9 22  1  0
  2 13  1  0
  1  2  1  0
  2  3  1  0
  8  9  1  0
  9 23  1  0
  1 10  1  0
  1 12  1  0
  7  8  1  0
  7 20  1  0
  3  7  1  0
  6  7  1  0
  3 15  1  0
  3  4  1  0
  4  5  1  0
  6 19  1  0
  6 18  1  0
  5  6  1  0
  5 16  1  0
  5 17  1  0
M  END
$$$$

     RDKit          3D

 21 20  0  0  0  0  0  0  0  0999 V2000
    0.0622    3.4454   -1.5362 C   0  0  0  0  0  0  0  0  0  0  0  0
    0.1072    2.3932   -0.5010 C   0  0  0  0  0  0  0  0  0  0  0  0
    0.0827    1.5312    0.3433 C   0  0  0  0  0  0  0  0  0  0  0  0
   -0.1106    0.5049    1.3870 C   0  0  0  0  0  0  0  0  0  0  0  0
    0.8786   -0.6612    1.3360 C   0  0  0  0  0  0  0  0  0  0  0  0
    1.1001   -1.3782   -0.0028 C   0  0  0  0  0  0  0  0  0  0  0  0
   -0.1393   -1.6757   -0.8603 C   0  0  0  0  0  0  0  0  0  0  0  0
   -1.2113   -2.3877   -0.1330 C   0  0  0  0  0  0  0  0  0  0  0  0
   -2.1501   -2.8906    0.4203 C   0  0  0  0  0  0  0  0  0  0  0  0
    0.0476    3.0246   -2.5456 H   0  0  0  0  0  0  0  0  0  0  0  0
    0.9059    4.1293   -1.4646 H   0  0  0  0  0  0  0  0  0  0  0  0
   -0.8496    4.0291   -1.4035 H   0  0  0  0  0  0  0  0  0  0  0  0
   -1.1245    0.1015    1.3607 H   0  0  0  0  0  0  0  0  0  0  0  0
   -0.0207    0.9970    2.3603 H   0  0  0  0  0  0  0  0  0  0  0  0
    1.8535   -0.2976    1.6962 H   0  0  0  0  0  0  0  0  0  0  0  0
    0.5539   -1.4153    2.0701 H   0  0  0  0  0  0  0  0  0  0  0  0
    1.6115   -2.3274    0.2166 H   0  0  0  0  0  0  0  0  0  0  0  0
    1.8061   -0.7920   -0.5994 H   0  0  0  0  0  0  0  0  0  0  0  0
   -0.5551   -0.7229   -1.2633 H   0  0  0  0  0  0  0  0  0  0  0  0
    0.1689   -2.2661   -1.7350 H   0  0  0  0  0  0  0  0  0  0  0  0
   -3.0171   -3.3414    0.8543 H   0  0  0  0  0  0  0  0  0  0  0  0
  4 13  1  0
  6 17  1  0
  5 16  1  0
  7 20  1  0
  1 11  1  0
  9 21  1  0
  8  9  3  0
  3  4  1  0
  4  5  1  0
  4 14  1  0
  5  6  1  0
  6  7  1  0
  6 18  1  0
  7  8  1  0
  2  3  3  0
  5 15  1  0
  7 19  1  0
  1  2  1  0
  1 10  1  0
  1 12  1  0
M  END
$$$$

     RDKit          3D

 22 23  0  0  0  0  0  0  0  0999 V2000
    0.7589   -0.3374   -1.7811 C   0  0  0  0  0  0  0  0  0  0  0  0
    0.3814   -0.4757   -0.2968 C   0  0  0  0  0  0  0  0  0  0  0  0
   -1.1072   -0.5924   -0.0703 C   0  0  0  0  0  0  0  0  0  0  0  0
   -1.8831   -1.7501   -0.5614 C   0  0  0  0  0  0  0  0  0  0  0  0
   -1.5500    0.4497    0.6654 C   0  0  0  0  0  0  0  0  0  0  0  0
   -0.4945    1.3642    1.1046 C   0  0  0  0  0  0  0  0  0  0  0  0
    0.2833    2.1127    0.1463 N   0  0  0  0  0  0  0  0  0  0  0  0
    0.8005    0.7802    0.5030 C   0  0  0  0  0  0  0  0  0  0  0  0
    1.9918    0.6635    1.4143 C   0  0  0  0  0  0  0  0  0  0  0  0
    0.5182   -1.2434   -2.3499 H   0  0  0  0  0  0  0  0  0  0  0  0
    1.8374   -0.1463   -1.8778 H   0  0  0  0  0  0  0  0  0  0  0  0
    0.2191    0.4943   -2.2443 H   0  0  0  0  0  0  0  0  0  0  0  0
    0.8795   -1.3680    0.0894 H   0  0  0  0  0  0  0  0  0  0  0  0
   -1.8316   -1.8277   -1.6527 H   0  0  0  0  0  0  0  0  0  0  0  0
   -2.9426   -1.6573   -0.2932 H   0  0  0  0  0  0  0  0  0  0  0  0
   -1.5051   -2.6829   -0.1118 H   0  0  0  0  0  0  0  0  0  0  0  0
   -2.5677    0.5792    0.9961 H   0  0  0  0  0  0  0  0  0  0  0  0
   -0.5065    1.6941    2.1359 H   0  0  0  0  0  0  0  0  0  0  0  0
   -0.1920    2.0960   -0.7612 H   0  0  0  0  0  0  0  0  0  0  0  0
    1.6702    0.5712    2.4527 H   0  0  0  0  0  0  0  0  0  0  0  0
    2.5730   -0.2376    1.1743 H   0  0  0  0  0  0  0  0  0  0  0  0
    2.6667    1.5137    1.3185 H   0  0  0  0  0  0  0  0  0  0  0  0
  4 15  1  0
  4 16  1  0
  4 14  1  0
  3  4  1  0
  5 17  1  0
  3  5  2  0
  2  3  1  0
  1 11  1  0
  5  6  1  0
  2 13  1  0
  1  2  1  0
  2  8  1  0
  1 10  1  0
  1 12  1  0
  6 18  1  0
  6  8  1  0
  6  7  1  0
  7  8  1  0
  8  9  1  0
  7 19  1  0
  9 21  1  0
  9 20  1  0
  9 22  1  0
M  END
$$$$

     RDKit          3D

 19 20  0  0  0  0  0  0  0  0999 V2000
    0.6075   -0.7718   -2.2700 O   0  0  0  0  0  0  0  0  0  0  0  0
    0.1459   -0.1338   -1.0715 C   0  0  0  0  0  0  0  0  0  0  0  0
   -0.7212    1.0728   -1.2525 C   0  0  0  0  0  0  0  0  0  0  0  0
    0.6802    1.2291   -0.7656 C   0  0  0  0  0  0  0  0  0  0  0  0
    1.1545    0.7844    0.5702 C   0  0  0  0  0  0  0  0  0  0  0  0
    0.7340   -0.6637    0.1965 C   0  0  0  0  0  0  0  0  0  0  0  0
   -0.1580   -1.4616    1.1455 C   0  0  0  0  0  0  0  0  0  0  0  0
   -1.4043   -0.7790    1.5282 C   0  0  0  0  0  0  0  0  0  0  0  0
   -2.4311   -0.2372    1.8401 C   0  0  0  0  0  0  0  0  0  0  0  0
    1.3080   -0.2589   -2.7097 H   0  0  0  0  0  0  0  0  0  0  0  0
   -1.5323    1.2356   -0.5572 H   0  0  0  0  0  0  0  0  0  0  0  0
   -0.9624    1.3768   -2.2660 H   0  0  0  0  0  0  0  0  0  0  0  0
    1.4530    1.6588   -1.3857 H   0  0  0  0  0  0  0  0  0  0  0  0
    0.6202    1.2363    1.4146 H   0  0  0  0  0  0  0  0  0  0  0  0
    2.2294    0.9074    0.7361 H   0  0  0  0  0  0  0  0  0  0  0  0
    1.6161   -1.2869   -0.0227 H   0  0  0  0  0  0  0  0  0  0  0  0
   -0.4048   -2.4235    0.6826 H   0  0  0  0  0  0  0  0  0  0  0  0
    0.4133   -1.6982    2.0519 H   0  0  0  0  0  0  0  0  0  0  0  0
   -3.3480    0.2132    2.1352 H   0  0  0  0  0  0  0  0  0  0  0  0
  3 11  1  0
  3 12  1  0
  2  3  1  0
  3  4  1  0
  1 10  1  0
  7 17  1  0
  1  2  1  0
  2  4  1  0
  2  6  1  0
  4 13  1  0
  4  5  1  0
  7 18  1  0
  5 15  1  0
  6  7  1  0
  7  8  1  0
  5  6  1  0
  6 16  1  0
  5 14  1  0
  8  9  3  0
  9 19  1  0
M  END
$$$$

     RDKit          3D

 17 16  0  0  0  0  0  0  0  0999 V2000
   -1.8518    0.3302   -1.7363 C   0  0  0  0  0  0  0  0  0  0  0  0
   -1.0953    0.3477   -0.5328 O   0  0  0  0  0  0  0  0  0  0  0  0
    0.2756    0.0705   -0.7629 C   0  0  0  0  0  0  0  0  0  0  0  0
    1.0724    0.2271    0.5414 C   0  0  0  0  0  0  0  0  0  0  0  0
    2.4626   -0.0109    0.2907 O   0  0  0  0  0  0  0  0  0  0  0  0
    0.6084   -0.7477    1.6266 C   0  0  0  0  0  0  0  0  0  0  0  0
   -0.4851   -0.2065    2.4392 C   0  0  0  0  0  0  0  0  0  0  0  0
   -1.3140    0.2040    3.1371 N   0  0  0  0  0  0  0  0  0  0  0  0
   -2.9039    0.5174   -1.4963 H   0  0  0  0  0  0  0  0  0  0  0  0
   -1.7727   -0.6484   -2.2274 H   0  0  0  0  0  0  0  0  0  0  0  0
   -1.5103    1.1214   -2.4068 H   0  0  0  0  0  0  0  0  0  0  0  0
    0.3882   -0.9476   -1.1655 H   0  0  0  0  0  0  0  0  0  0  0  0
    0.6796    0.7559   -1.5184 H   0  0  0  0  0  0  0  0  0  0  0  0
    0.9828    1.2574    0.9065 H   0  0  0  0  0  0  0  0  0  0  0  0
    2.6954    0.4150   -0.5614 H   0  0  0  0  0  0  0  0  0  0  0  0
    1.4558   -0.9806    2.2838 H   0  0  0  0  0  0  0  0  0  0  0  0
    0.3122   -1.7049    1.1826 H   0  0  0  0  0  0  0  0  0  0  0  0
  1 10  1  0
  5 15  1  0
  4  5  1  0
  1  2  1  0
  1  9  1  0
  1 11  1  0
  2  3  1  0
  4 14  1  0
  3  4  1  0
  4  6  1  0
  3 12  1  0
  3 13  1  0
  7  8  3  0
  6  7  1  0
  6 16  1  0
  6 17  1  0
M  END
$$$$

     RDKit          3D

 20 21  0  0  0  0  0  0  0  0999 V2000
   -0.2328   -0.0575   -2.2090 C   0  0  0  0  0  0  0  0  0  0  0  0
   -0.1416   -1.2619   -1.2395 C   0  0  0  0  0  0  0  0  0  0  0  0
   -0.1321   -0.2434   -0.0727 C   0  0  0  0  0  0  0  0  0  0  0  0
   -0.8301    0.7524   -1.0399 C   0  0  0  0  0  0  0  0  0  0  0  0
    1.2247    0.2046    0.4698 C   0  0  0  0  0  0  0  0  0  0  0  0
    0.8838    0.7679    1.8516 C   0  0  0  0  0  0  0  0  0  0  0  0
   -0.3667    0.0205    2.2066 C   0  0  0  0  0  0  0  0  0  0  0  0
   -0.9229   -0.5705    1.1390 C   0  0  0  0  0  0  0  0  0  0  0  0
   -0.9040   -0.2023   -3.0568 H   0  0  0  0  0  0  0  0  0  0  0  0
    0.7363    0.3228   -2.5624 H   0  0  0  0  0  0  0  0  0  0  0  0
   -1.0240   -1.9087   -1.2789 H   0  0  0  0  0  0  0  0  0  0  0  0
    0.7575   -1.8822   -1.3505 H   0  0  0  0  0  0  0  0  0  0  0  0
   -1.9263    0.7259   -1.0165 H   0  0  0  0  0  0  0  0  0  0  0  0
   -0.5056    1.7988   -0.9845 H   0  0  0  0  0  0  0  0  0  0  0  0
    1.8903   -0.6597    0.5887 H   0  0  0  0  0  0  0  0  0  0  0  0
    1.7408    0.9363   -0.1603 H   0  0  0  0  0  0  0  0  0  0  0  0
    1.6940    0.6086    2.5734 H   0  0  0  0  0  0  0  0  0  0  0  0
    0.6580    1.8417    1.7925 H   0  0  0  0  0  0  0  0  0  0  0  0
   -0.7703   -0.0328    3.2070 H   0  0  0  0  0  0  0  0  0  0  0  0
   -1.8290   -1.1604    1.1426 H   0  0  0  0  0  0  0  0  0  0  0  0
  4 14  1  0
  1 10  1  0
  2 11  1  0
  5 16  1  0
  5 15  1  0
  1  4  1  0
  1  2  1  0
  1  9  1  0
  4 13  1  0
  3  4  1  0
  2  3  1  0
  2 12  1  0
  3  5  1  0
  5  6  1  0
  3  8  1  0
  6 18  1  0
  6 17  1  0
  6  7  1  0
  7  8  2  0
  8 20  1  0
  7 19  1  0
M  END
$$$$

     RDKit          3D

 17 17  0  0  0  0  0  0  0  0999 V2000
    0.1322    1.6313    1.7652 C   0  0  0  0  0  0  0  0  0  0  0  0
    1.2824    1.3862    0.9014 N   0  0  0  0  0  0  0  0  0  0  0  0
    0.8708    1.0767   -0.4872 C   0  0  0  0  0  0  0  0  0  0  0  0
    0.0932   -0.2097   -0.7270 C   0  0  0  0  0  0  0  0  0  0  0  0
    0.2664   -1.2669    0.1000 N   0  0  0  0  0  0  0  0  0  0  0  0
   -0.4564   -2.3619   -0.2009 C   0  0  0  0  0  0  0  0  0  0  0  0
   -1.2945   -2.4176   -1.2905 C   0  0  0  0  0  0  0  0  0  0  0  0
   -1.4208   -1.3594   -2.1084 N   0  0  0  0  0  0  0  0  0  0  0  0
   -0.7138   -0.2354   -1.8220 N   0  0  0  0  0  0  0  0  0  0  0  0
    0.4856    1.8366    2.7837 H   0  0  0  0  0  0  0  0  0  0  0  0
   -0.5289    0.7616    1.8322 H   0  0  0  0  0  0  0  0  0  0  0  0
   -0.4427    2.5013    1.4239 H   0  0  0  0  0  0  0  0  0  0  0  0
    1.8562    2.2241    0.8856 H   0  0  0  0  0  0  0  0  0  0  0  0
    1.7796    1.0092   -1.0953 H   0  0  0  0  0  0  0  0  0  0  0  0
    0.2924    1.9201   -0.8881 H   0  0  0  0  0  0  0  0  0  0  0  0
   -0.3241   -3.2030    0.4703 H   0  0  0  0  0  0  0  0  0  0  0  0
   -1.8776   -3.2932   -1.5429 H   0  0  0  0  0  0  0  0  0  0  0  0
  6 16  1  0
  1 10  1  0
  1 11  1  0
  5  6  1  0
  6  7  2  0
  7 17  1  0
  1 12  1  0
  1  2  1  0
  4  5  2  0
  7  8  1  0
  2 13  1  0
  2  3  1  0
  4  9  1  0
  3  4  1  0
  8  9  2  0
  3 15  1  0
  3 14  1  0
M  END
$$$$

     RDKit          3D

 23 23  0  0  0  0  0  0  0  0999 V2000
    0.9059   -1.9167   -1.5000 C   0  0  0  0  0  0  0  0  0  0  0  0
    0.9158   -0.6623   -0.6897 C   0  0  0  0  0  0  0  0  0  0  0  0
   -0.0378    0.4559   -1.0196 C   0  0  0  0  0  0  0  0  0  0  0  0
    0.5211    1.8359   -1.1484 C   0  0  0  0  0  0  0  0  0  0  0  0
   -0.1881   -0.2954    0.3104 C   0  0  0  0  0  0  0  0  0  0  0  0
   -1.3608   -1.2406    0.4428 C   0  0  0  0  0  0  0  0  0  0  0  0
    0.2741    0.3487    1.5965 C   0  0  0  0  0  0  0  0  0  0  0  0
   -0.6551    1.3485    2.2293 C   0  0  0  0  0  0  0  0  0  0  0  0
    1.3664    0.0680    2.0793 O   0  0  0  0  0  0  0  0  0  0  0  0
    1.7304   -1.8953   -2.2235 H   0  0  0  0  0  0  0  0  0  0  0  0
   -0.0201   -2.0478   -2.0702 H   0  0  0  0  0  0  0  0  0  0  0  0
    1.0437   -2.7876   -0.8498 H   0  0  0  0  0  0  0  0  0  0  0  0
    1.9333   -0.4133   -0.4038 H   0  0  0  0  0  0  0  0  0  0  0  0
   -0.7730    0.2702   -1.7981 H   0  0  0  0  0  0  0  0  0  0  0  0
   -0.1535    2.4635   -1.7505 H   0  0  0  0  0  0  0  0  0  0  0  0
    1.4905    1.8120   -1.6685 H   0  0  0  0  0  0  0  0  0  0  0  0
    0.6632    2.3312   -0.1804 H   0  0  0  0  0  0  0  0  0  0  0  0
   -1.6503   -1.6943   -0.5107 H   0  0  0  0  0  0  0  0  0  0  0  0
   -1.1198   -2.0481    1.1420 H   0  0  0  0  0  0  0  0  0  0  0  0
   -2.2427   -0.7148    0.8207 H   0  0  0  0  0  0  0  0  0  0  0  0
   -0.5063    2.3328    1.7789 H   0  0  0  0  0  0  0  0  0  0  0  0
   -1.6970    1.0431    2.1126 H   0  0  0  0  0  0  0  0  0  0  0  0
   -0.4399    1.4063    3.3006 H   0  0  0  0  0  0  0  0  0  0  0  0
  1 11  1  0
  1 12  1  0
  1 10  1  0
  1  2  1  0
  4 17  1  0
  2 13  1  0
  2  3  1  0
  2  5  1  0
  4 15  1  0
  3  4  1  0
  4 16  1  0
  3 14  1  0
  3  5  1  0
  6 18  1  0
  5  6  1  0
  5  7  1  0
  7  9  2  0
  6 19  1  0
  6 20  1  0
  7  8  1  0
  8 21  1  0
  8 22  1  0
  8 23  1  0
M  END
$$$$

     RDKit          3D

 23 23  0  0  0  0  0  0  0  0999 V2000
    0.1038    3.0669    0.9559 C   0  0  0  0  0  0  0  0  0  0  0  0
    0.7442    1.7947    0.3991 C   0  0  0  0  0  0  0  0  0  0  0  0
    0.0792    0.5268    0.9364 C   0  0  0  0  0  0  0  0  0  0  0  0
    0.5974   -0.7406    0.2525 C   0  0  0  0  0  0  0  0  0  0  0  0
    0.5201   -1.8263    1.2113 O   0  0  0  0  0  0  0  0  0  0  0  0
   -0.2968   -2.8788    0.6630 C   0  0  0  0  0  0  0  0  0  0  0  0
   -0.7151   -2.4121   -0.6793 C   0  0  0  0  0  0  0  0  0  0  0  0
   -0.2225   -1.1976   -0.9211 C   0  0  0  0  0  0  0  0  0  0  0  0
   -0.4165   -0.3524   -2.1280 C   0  0  0  0  0  0  0  0  0  0  0  0
   -0.4442    3.5841    0.1578 H   0  0  0  0  0  0  0  0  0  0  0  0
    0.8625    3.7567    1.3326 H   0  0  0  0  0  0  0  0  0  0  0  0
   -0.6033    2.8684    1.7723 H   0  0  0  0  0  0  0  0  0  0  0  0
    0.7150    1.8178   -0.6978 H   0  0  0  0  0  0  0  0  0  0  0  0
    1.8018    1.7889    0.6857 H   0  0  0  0  0  0  0  0  0  0  0  0
   -1.0113    0.5941    0.8072 H   0  0  0  0  0  0  0  0  0  0  0  0
    0.2605    0.4650    2.0199 H   0  0  0  0  0  0  0  0  0  0  0  0
    1.6497   -0.6357   -0.0343 H   0  0  0  0  0  0  0  0  0  0  0  0
    0.2975   -3.8041    0.6091 H   0  0  0  0  0  0  0  0  0  0  0  0
   -1.1601   -3.0310    1.3275 H   0  0  0  0  0  0  0  0  0  0  0  0
   -1.3538   -2.9935   -1.3373 H   0  0  0  0  0  0  0  0  0  0  0  0
   -0.9225   -0.9033   -2.9304 H   0  0  0  0  0  0  0  0  0  0  0  0
   -1.0335    0.5192   -1.8854 H   0  0  0  0  0  0  0  0  0  0  0  0
    0.5477   -0.0070   -2.5165 H   0  0  0  0  0  0  0  0  0  0  0  0
  7 20  1  0
  9 21  1  0
  9 22  1  0
  7  8  2  0
  6  7  1  0
  8  9  1  0
  9 23  1  0
  6 19  1  0
  4  8  1  0
  6 18  1  0
  5  6  1  0
  3 15  1  0
  3 16  1  0
  3  4  1  0
  4  5  1  0
  4 17  1  0
  2  3  1  0
  1 11  1  0
  1 10  1  0
  1  2  1  0
  1 12  1  0
  2 14  1  0
  2 13  1  0
M  END
$$$$

     RDKit          3D

 20 22  0  0  0  0  0  0  0  0999 V2000
   -2.3173    0.6633   -0.8501 C   0  0  0  0  0  0  0  0  0  0  0  0
   -2.0649    0.1022    0.3938 O   0  0  0  0  0  0  0  0  0  0  0  0
   -0.6541    0.3027    0.8889 C   0  0  0  0  0  0  0  0  0  0  0  0
    0.1592   -0.7634    1.7521 C   0  0  0  0  0  0  0  0  0  0  0  0
    1.7939   -0.8051    1.7404 C   0  0  0  0  0  0  0  0  0  0  0  0
    0.8201   -1.2018    0.6164 N   0  0  0  0  0  0  0  0  0  0  0  0
    0.4782   -0.0473   -0.1373 C   0  0  0  0  0  0  0  0  0  0  0  0
    0.5562   -0.3738   -1.6257 C   0  0  0  0  0  0  0  0  0  0  0  0
    1.0441    1.0060   -1.1916 C   0  0  0  0  0  0  0  0  0  0  0  0
   -2.1418   -0.0390   -1.7339 H   0  0  0  0  0  0  0  0  0  0  0  0
   -3.3806    0.7974   -0.7645 H   0  0  0  0  0  0  0  0  0  0  0  0
   -1.6637    1.5532   -0.9903 H   0  0  0  0  0  0  0  0  0  0  0  0
   -0.4961    1.3376    1.4157 H   0  0  0  0  0  0  0  0  0  0  0  0
   -0.3485   -1.1432    2.5220 H   0  0  0  0  0  0  0  0  0  0  0  0
    2.0047   -1.2780    2.7189 H   0  0  0  0  0  0  0  0  0  0  0  0
    2.6761   -1.4692    1.3300 H   0  0  0  0  0  0  0  0  0  0  0  0
    1.3731   -1.0033   -2.0067 H   0  0  0  0  0  0  0  0  0  0  0  0
   -0.4162   -0.7014   -1.9063 H   0  0  0  0  0  0  0  0  0  0  0  0
    2.0926    1.0715   -1.2517 H   0  0  0  0  0  0  0  0  0  0  0  0
    0.4849    1.9915   -0.9202 H   0  0  0  0  0  0  0  0  0  0  0  0
  9 20  1  0
  9 19  1  0
  7  9  1  0
  8  9  1  0
  3 13  1  0
  6  7  1  0
  7  8  1  0
  3  7  1  0
  4  6  1  0
  5  6  1  0
  8 17  1  0
  8 18  1  0
  3  4  1  0
  2  3  1  0
  4 14  1  0
  4  5  1  0
  1 11  1  0
  1  2  1  0
  5 15  1  0
  5 16  1  0
  1 10  1  0
  1 12  1  0
M  END
$$$$

     RDKit          3D

 20 22  0  0  0  0  0  0  0  0999 V2000
    1.2765    0.5424   -1.4818 C   0  0  0  0  0  0  0  0  0  0  0  0
    0.1335   -0.3936   -1.1556 C   0  0  0  0  0  0  0  0  0  0  0  0
    0.2247   -1.6352   -0.2189 C   0  0  0  0  0  0  0  0  0  0  0  0
   -1.2877   -1.6146   -0.2496 O   0  0  0  0  0  0  0  0  0  0  0  0
   -0.9293   -0.1587   -0.0457 C   0  0  0  0  0  0  0  0  0  0  0  0
   -2.1019    0.7049    0.2254 C   0  0  0  0  0  0  0  0  0  0  0  0
    0.0177   -0.7609    0.9772 C   0  0  0  0  0  0  0  0  0  0  0  0
    0.5417    0.4524    1.8088 C   0  0  0  0  0  0  0  0  0  0  0  0
    1.3960   -0.6229    1.5758 N   0  0  0  0  0  0  0  0  0  0  0  0
    1.9940    0.0512   -2.1488 H   0  0  0  0  0  0  0  0  0  0  0  0
    1.8271    0.9082   -0.6162 H   0  0  0  0  0  0  0  0  0  0  0  0
    0.8886    1.4222   -2.0072 H   0  0  0  0  0  0  0  0  0  0  0  0
   -0.3338   -0.6289   -2.1235 H   0  0  0  0  0  0  0  0  0  0  0  0
    0.6576   -2.6093   -0.4128 H   0  0  0  0  0  0  0  0  0  0  0  0
   -1.8260    1.7629    0.2611 H   0  0  0  0  0  0  0  0  0  0  0  0
   -2.5732    0.4591    1.1787 H   0  0  0  0  0  0  0  0  0  0  0  0
   -2.8696    0.5923   -0.5506 H   0  0  0  0  0  0  0  0  0  0  0  0
    0.1000    0.5684    2.7961 H   0  0  0  0  0  0  0  0  0  0  0  0
    0.7479    1.3947    1.3064 H   0  0  0  0  0  0  0  0  0  0  0  0
    2.1160   -0.4344    0.8812 H   0  0  0  0  0  0  0  0  0  0  0  0
  3 14  1  0
  8 19  1  0
  1 11  1  0
  2  3  1  0
  3  7  1  0
  3  4  1  0
  2 13  1  0
  9 20  1  0
  7  8  1  0
  8  9  1  0
  8 18  1  0
  1  2  1  0
  2  5  1  0
  1 10  1  0
  1 12  1  0
  7  9  1  0
  5  7  1  0
  4  5  1  0
  5  6  1  0
  6 16  1  0
  6 15  1  0
  6 17  1  0
M  END
$$$$

     RDKit          3D

 18 19  0  0  0  0  0  0  0  0999 V2000
    0.8548   -1.0507    1.8907 O   0  0  0  0  0  0  0  0  0  0  0  0
    1.6197   -0.2176    1.4205 C   0  0  0  0  0  0  0  0  0  0  0  0
    1.3430    0.8632    0.6107 N   0  0  0  0  0  0  0  0  0  0  0  0
    0.0401    1.3232    0.2664 C   0  0  0  0  0  0  0  0  0  0  0  0
   -1.2588    0.6130    0.5064 C   0  0  0  0  0  0  0  0  0  0  0  0
   -1.3971   -0.8100   -0.0568 C   0  0  0  0  0  0  0  0  0  0  0  0
   -0.4431   -1.1875   -1.1498 C   0  0  0  0  0  0  0  0  0  0  0  0
    0.6444   -0.4559   -1.4354 C   0  0  0  0  0  0  0  0  0  0  0  0
    0.9901    0.7985   -0.7712 C   0  0  0  0  0  0  0  0  0  0  0  0
    2.6952   -0.2373    1.6630 H   0  0  0  0  0  0  0  0  0  0  0  0
   -0.0617    2.3940    0.3880 H   0  0  0  0  0  0  0  0  0  0  0  0
   -2.0345    1.2291    0.0262 H   0  0  0  0  0  0  0  0  0  0  0  0
   -1.5005    0.6188    1.5787 H   0  0  0  0  0  0  0  0  0  0  0  0
   -1.2818   -1.5355    0.7540 H   0  0  0  0  0  0  0  0  0  0  0  0
   -2.4215   -0.9448   -0.4167 H   0  0  0  0  0  0  0  0  0  0  0  0
   -0.6287   -2.1168   -1.6790 H   0  0  0  0  0  0  0  0  0  0  0  0
    1.3171   -0.8035   -2.2159 H   0  0  0  0  0  0  0  0  0  0  0  0
    1.5235    1.5196   -1.3799 H   0  0  0  0  0  0  0  0  0  0  0  0
  9 18  1  0
  4 11  1  0
  3  9  1  0
  3  4  1  0
  2  3  1  0
  4  9  1  0
  8  9  1  0
  4  5  1  0
  2 10  1  0
  1  2  2  0
  8 17  1  0
  7  8  2  0
  5 13  1  0
  5 12  1  0
  5  6  1  0
  6  7  1  0
  7 16  1  0
  6 15  1  0
  6 14  1  0
M  END
$$$$

     RDKit          3D

 15 16  0  0  0  0  0  0  0  0999 V2000
   -2.5596    0.0891   -1.0529 O   0  0  0  0  0  0  0  0  0  0  0  0
   -1.3732   -0.0956   -0.8814 C   0  0  0  0  0  0  0  0  0  0  0  0
   -0.1184    0.4214   -1.6080 C   0  0  0  0  0  0  0  0  0  0  0  0
    0.7325   -0.3212   -0.5490 C   0  0  0  0  0  0  0  0  0  0  0  0
    1.3308    0.5284    0.5288 C   0  0  0  0  0  0  0  0  0  0  0  0
    0.6323    0.5303    1.6769 C   0  0  0  0  0  0  0  0  0  0  0  0
   -0.5644   -0.3353    1.5323 C   0  0  0  0  0  0  0  0  0  0  0  0
   -1.3472   -0.5032    2.4551 O   0  0  0  0  0  0  0  0  0  0  0  0
   -0.5487   -0.9313    0.1030 C   0  0  0  0  0  0  0  0  0  0  0  0
   -0.0209    0.0307   -2.6250 H   0  0  0  0  0  0  0  0  0  0  0  0
   -0.0320    1.5111   -1.6230 H   0  0  0  0  0  0  0  0  0  0  0  0
    1.4377   -1.0541   -0.9536 H   0  0  0  0  0  0  0  0  0  0  0  0
    2.2494    1.0844    0.3838 H   0  0  0  0  0  0  0  0  0  0  0  0
    0.8555    1.0565    2.5905 H   0  0  0  0  0  0  0  0  0  0  0  0
   -0.6737   -2.0112    0.0227 H   0  0  0  0  0  0  0  0  0  0  0  0
  9 15  1  0
  1  2  2  0
  3 10  1  0
  2  9  1  0
  2  3  1  0
  4  9  1  0
  7  9  1  0
  4 12  1  0
  3  4  1  0
  3 11  1  0
  4  5  1  0
  7  8  2  0
  6  7  1  0
  5  6  2  0
  5 13  1  0
  6 14  1  0
M  END
$$$$

     RDKit          3D

 18 17  0  0  0  0  0  0  0  0999 V2000
    1.3949   -0.6423    0.4086 C   0  0  0  0  0  0  0  0  0  0  0  0
    0.0500   -0.3202    1.0558 C   0  0  0  0  0  0  0  0  0  0  0  0
   -0.4753    0.9069    0.5248 O   0  0  0  0  0  0  0  0  0  0  0  0
   -1.2371    0.9258   -0.5929 C   0  0  0  0  0  0  0  0  0  0  0  0
   -1.9750    1.8906   -0.8098 O   0  0  0  0  0  0  0  0  0  0  0  0
   -1.0307   -0.1539   -1.6527 C   0  0  0  0  0  0  0  0  0  0  0  0
   -0.1793    0.3787   -2.7399 N   0  0  0  0  0  0  0  0  0  0  0  0
    0.2208   -0.1417    2.5071 C   0  0  0  0  0  0  0  0  0  0  0  0
    0.4087    0.0225    3.6842 C   0  0  0  0  0  0  0  0  0  0  0  0
    1.3107   -1.5099   -0.2342 H   0  0  0  0  0  0  0  0  0  0  0  0
    1.7667    0.1859   -0.2173 H   0  0  0  0  0  0  0  0  0  0  0  0
    2.1803   -0.8967    1.1177 H   0  0  0  0  0  0  0  0  0  0  0  0
   -0.6629   -1.1316    0.8962 H   0  0  0  0  0  0  0  0  0  0  0  0
   -2.0280   -0.3611   -2.0919 H   0  0  0  0  0  0  0  0  0  0  0  0
   -0.6747   -1.1003   -1.2595 H   0  0  0  0  0  0  0  0  0  0  0  0
   -0.4371    1.3662   -2.8506 H   0  0  0  0  0  0  0  0  0  0  0  0
    0.8115    0.3690   -2.4680 H   0  0  0  0  0  0  0  0  0  0  0  0
    0.5567    0.2120    4.7228 H   0  0  0  0  0  0  0  0  0  0  0  0
  9 18  1  0
  8  9  3  0
  2  8  1  0
  1 11  1  0
  1 10  1  0
  1  2  1  0
  1 12  1  0
  2  3  1  0
  2 13  1  0
  3  4  1  0
  6 14  1  0
  6 15  1  0
  4  6  1  0
  6  7  1  0
  4  5  2  0
  7 17  1  0
  7 16  1  0
M  END
$$$$

     RDKit          3D

 21 22  0  0  0  0  0  0  0  0999 V2000
   -0.2529    0.4906   -1.6824 C   0  0  0  0  0  0  0  0  0  0  0  0
    0.4968   -0.0927   -0.5013 C   0  0  0  0  0  0  0  0  0  0  0  0
    1.9331   -0.4514   -0.7834 C   0  0  0  0  0  0  0  0  0  0  0  0
    2.7936    0.6494   -0.4688 O   0  0  0  0  0  0  0  0  0  0  0  0
   -0.1873   -0.9785    0.5139 C   0  0  0  0  0  0  0  0  0  0  0  0
   -1.5526   -0.8690    1.0699 C   0  0  0  0  0  0  0  0  0  0  0  0
   -1.2898    0.6052    1.4312 C   0  0  0  0  0  0  0  0  0  0  0  0
   -2.1856    1.5809    0.8226 O   0  0  0  0  0  0  0  0  0  0  0  0
    0.0894    0.4467    0.8578 C   0  0  0  0  0  0  0  0  0  0  0  0
   -0.7399    1.4339   -1.3889 H   0  0  0  0  0  0  0  0  0  0  0  0
   -1.0355   -0.2001   -2.0609 H   0  0  0  0  0  0  0  0  0  0  0  0
    0.4259    0.7066   -2.5120 H   0  0  0  0  0  0  0  0  0  0  0  0
    2.0528   -0.7041   -1.8484 H   0  0  0  0  0  0  0  0  0  0  0  0
    2.2625   -1.3317   -0.1902 H   0  0  0  0  0  0  0  0  0  0  0  0
    3.7008    0.2958   -0.6269 H   0  0  0  0  0  0  0  0  0  0  0  0
    0.3776   -1.7494    1.0346 H   0  0  0  0  0  0  0  0  0  0  0  0
   -2.3707   -1.0613    0.3508 H   0  0  0  0  0  0  0  0  0  0  0  0
   -1.7263   -1.4977    1.9497 H   0  0  0  0  0  0  0  0  0  0  0  0
   -1.2367    0.7956    2.5098 H   0  0  0  0  0  0  0  0  0  0  0  0
   -2.4144    1.1952   -0.0461 H   0  0  0  0  0  0  0  0  0  0  0  0
    0.8591    0.7361    1.5689 H   0  0  0  0  0  0  0  0  0  0  0  0
  4 15  1  0
  3  4  1  0
  1 11  1  0
  5 16  1  0
  3 13  1  0
  2  3  1  0
  3 14  1  0
  2  5  1  0
  5  6  1  0
  5  9  1  0
  6 18  1  0
  1  2  1  0
  1 10  1  0
  1 12  1  0
  2  9  1  0
  6 17  1  0
  6  7  1  0
  9 21  1  0
  7  9  1  0
  7 19  1  0
  7  8  1  0
  8 20  1  0
M  END
$$$$

     RDKit          3D

 23 23  0  0  0  0  0  0  0  0999 V2000
    1.6013    2.5510   -0.1443 C   0  0  0  0  0  0  0  0  0  0  0  0
    0.9411    1.6401    0.8816 C   0  0  0  0  0  0  0  0  0  0  0  0
    0.3261    0.3705    0.2737 C   0  0  0  0  0  0  0  0  0  0  0  0
   -0.9121    0.6974   -0.5900 C   0  0  0  0  0  0  0  0  0  0  0  0
   -1.7772   -0.4551   -1.0397 C   0  0  0  0  0  0  0  0  0  0  0  0
   -1.5488   -1.7692   -0.8856 C   0  0  0  0  0  0  0  0  0  0  0  0
   -0.3175   -2.3624   -0.2734 C   0  0  0  0  0  0  0  0  0  0  0  0
    0.0389   -1.8558    1.1326 C   0  0  0  0  0  0  0  0  0  0  0  0
   -0.0864   -0.4557    1.3659 O   0  0  0  0  0  0  0  0  0  0  0  0
    1.9890    3.4547    0.3427 H   0  0  0  0  0  0  0  0  0  0  0  0
    2.4476    2.0448   -0.6255 H   0  0  0  0  0  0  0  0  0  0  0  0
    0.8971    2.8684   -0.9184 H   0  0  0  0  0  0  0  0  0  0  0  0
    0.1768    2.1978    1.4337 H   0  0  0  0  0  0  0  0  0  0  0  0
    1.6974    1.3452    1.6268 H   0  0  0  0  0  0  0  0  0  0  0  0
    1.1083   -0.1299   -0.3082 H   0  0  0  0  0  0  0  0  0  0  0  0
   -0.5993    1.2571   -1.4886 H   0  0  0  0  0  0  0  0  0  0  0  0
   -1.5672    1.3798   -0.0121 H   0  0  0  0  0  0  0  0  0  0  0  0
   -2.6965   -0.1586   -1.5460 H   0  0  0  0  0  0  0  0  0  0  0  0
   -2.2824   -2.4740   -1.2745 H   0  0  0  0  0  0  0  0  0  0  0  0
   -0.4265   -3.4505   -0.2308 H   0  0  0  0  0  0  0  0  0  0  0  0
    0.5186   -2.1906   -0.9625 H   0  0  0  0  0  0  0  0  0  0  0  0
   -0.5982   -2.3547    1.8724 H   0  0  0  0  0  0  0  0  0  0  0  0
    1.0698   -2.1505    1.3701 H   0  0  0  0  0  0  0  0  0  0  0  0
  5 18  1  0
  4 16  1  0
  2 13  1  0
  3 15  1  0
  1 11  1  0
  4  5  1  0
  5  6  2  0
  3  4  1  0
  4 17  1  0
  6 19  1  0
  2  3  1  0
  3  9  1  0
  1  2  1  0
  2 14  1  0
  6  7  1  0
  1 10  1  0
  1 12  1  0
  8 22  1  0
  8  9  1  0
  7  8  1  0
  8 23  1  0
  7 20  1  0
  7 21  1  0
M  END
$$$$

     RDKit          3D

 20 20  0  0  0  0  0  0  0  0999 V2000
   -0.2013   -1.0197   -2.1423 C   0  0  0  0  0  0  0  0  0  0  0  0
   -0.8492    0.1010   -1.5196 O   0  0  0  0  0  0  0  0  0  0  0  0
   -1.2803   -0.1896   -0.1601 C   0  0  0  0  0  0  0  0  0  0  0  0
   -0.3344    0.1240    1.0016 C   0  0  0  0  0  0  0  0  0  0  0  0
    1.0862   -0.4263    0.9629 C   0  0  0  0  0  0  0  0  0  0  0  0
    0.8336    0.9773    0.9151 N   0  0  0  0  0  0  0  0  0  0  0  0
    1.2188    1.6392   -0.3061 C   0  0  0  0  0  0  0  0  0  0  0  0
   -0.9723    0.0463    2.3455 C   0  0  0  0  0  0  0  0  0  0  0  0
   -1.4039   -1.0319    2.7674 O   0  0  0  0  0  0  0  0  0  0  0  0
    0.8916   -0.9842   -2.0198 H   0  0  0  0  0  0  0  0  0  0  0  0
   -0.4537   -1.0808   -3.1786 H   0  0  0  0  0  0  0  0  0  0  0  0
   -0.5626   -1.9700   -1.6666 H   0  0  0  0  0  0  0  0  0  0  0  0
   -2.1886    0.4468   -0.0241 H   0  0  0  0  0  0  0  0  0  0  0  0
   -1.5937   -1.2508   -0.0970 H   0  0  0  0  0  0  0  0  0  0  0  0
    1.6323   -0.7574    1.8618 H   0  0  0  0  0  0  0  0  0  0  0  0
    1.1439   -1.1632    0.1831 H   0  0  0  0  0  0  0  0  0  0  0  0
    2.3075    1.8270   -0.3228 H   0  0  0  0  0  0  0  0  0  0  0  0
    0.7144    2.6276   -0.3155 H   0  0  0  0  0  0  0  0  0  0  0  0
    1.0516    1.1174   -1.2403 H   0  0  0  0  0  0  0  0  0  0  0  0
   -1.0400    0.9674    2.9553 H   0  0  0  0  0  0  0  0  0  0  0  0
  8  9  2  0
  1 10  1  0
  1 12  1  0
  8 20  1  0
  4  8  1  0
  1 11  1  0
  1  2  1  0
  3 13  1  0
  3  4  1  0
  4  6  1  0
  4  5  1  0
  2  3  1  0
  3 14  1  0
  5  6  1  0
  6  7  1  0
  5 15  1  0
  5 16  1  0
  7 18  1  0
  7 19  1  0
  7 17  1  0
M  END
$$$$

     RDKit          3D

 17 17  0  0  0  0  0  0  0  0999 V2000
   -1.1196    2.1003   -0.9524 C   0  0  0  0  0  0  0  0  0  0  0  0
   -0.2365    1.1343   -0.3072 N   0  0  0  0  0  0  0  0  0  0  0  0
    1.0282    1.4806    0.1066 C   0  0  0  0  0  0  0  0  0  0  0  0
    1.9324    0.6749    0.5437 N   0  0  0  0  0  0  0  0  0  0  0  0
    1.6677   -0.6770    0.4867 C   0  0  0  0  0  0  0  0  0  0  0  0
    2.5685   -1.5160    0.4592 O   0  0  0  0  0  0  0  0  0  0  0  0
    0.2219   -1.0914    0.4102 C   0  0  0  0  0  0  0  0  0  0  0  0
   -0.1610   -2.5068    0.6802 C   0  0  0  0  0  0  0  0  0  0  0  0
   -0.6264   -0.1651   -0.0685 C   0  0  0  0  0  0  0  0  0  0  0  0
   -1.3142    1.7580   -1.9966 H   0  0  0  0  0  0  0  0  0  0  0  0
   -2.0810    2.1868   -0.4295 H   0  0  0  0  0  0  0  0  0  0  0  0
   -0.6807    3.0938   -1.0108 H   0  0  0  0  0  0  0  0  0  0  0  0
    1.2571    2.5538    0.0516 H   0  0  0  0  0  0  0  0  0  0  0  0
   -0.9359   -2.8542   -0.0183 H   0  0  0  0  0  0  0  0  0  0  0  0
    0.6961   -3.1874    0.6086 H   0  0  0  0  0  0  0  0  0  0  0  0
   -0.5380   -2.5990    1.7031 H   0  0  0  0  0  0  0  0  0  0  0  0
   -1.6785   -0.3855   -0.2665 H   0  0  0  0  0  0  0  0  0  0  0  0
  3 13  1  0
  3  4  2  0
  4  5  1  0
  2  3  1  0
  1 11  1  0
  5  6  2  0
  5  7  1  0
  1  2  1  0
  2  9  1  0
  1 10  1  0
  1 12  1  0
  7  9  2  0
  9 17  1  0
  7  8  1  0
  8 14  1  0
  8 16  1  0
  8 15  1  0
M  END
$$$$

     RDKit          3D

 20 21  0  0  0  0  0  0  0  0999 V2000
   -1.8621   -1.0041    1.0590 C   0  0  0  0  0  0  0  0  0  0  0  0
   -0.9255   -0.1885    0.1419 C   0  0  0  0  0  0  0  0  0  0  0  0
   -1.2371    0.4278   -0.9883 C   0  0  0  0  0  0  0  0  0  0  0  0
   -0.2086    1.4744   -1.2446 C   0  0  0  0  0  0  0  0  0  0  0  0
    0.5372    1.4437    0.0210 C   0  0  0  0  0  0  0  0  0  0  0  0
    1.7800    0.7848    0.1668 C   0  0  0  0  0  0  0  0  0  0  0  0
    0.6019   -0.0909    0.6449 C   0  0  0  0  0  0  0  0  0  0  0  0
    1.1167   -1.4948    0.1560 C   0  0  0  0  0  0  0  0  0  0  0  0
   -2.7426   -0.4147    1.0167 H   0  0  0  0  0  0  0  0  0  0  0  0
   -1.4107   -1.0072    2.0670 H   0  0  0  0  0  0  0  0  0  0  0  0
   -1.9518   -2.0430    0.6952 H   0  0  0  0  0  0  0  0  0  0  0  0
   -2.2224    0.3034   -1.5042 H   0  0  0  0  0  0  0  0  0  0  0  0
    0.4212    1.2758   -2.1723 H   0  0  0  0  0  0  0  0  0  0  0  0
   -0.6515    2.5069   -1.3114 H   0  0  0  0  0  0  0  0  0  0  0  0
    0.0986    2.0947    0.7754 H   0  0  0  0  0  0  0  0  0  0  0  0
    2.3884    0.4619   -0.7104 H   0  0  0  0  0  0  0  0  0  0  0  0
    2.4954    1.1823    0.9558 H   0  0  0  0  0  0  0  0  0  0  0  0
    0.9993   -1.7996   -0.9271 H   0  0  0  0  0  0  0  0  0  0  0  0
    0.5804   -2.3068    0.7601 H   0  0  0  0  0  0  0  0  0  0  0  0
    2.1932   -1.6059    0.3986 H   0  0  0  0  0  0  0  0  0  0  0  0
  3 12  1  0
  4 14  1  0
  4 13  1  0
  3  4  1  0
  2  3  2  0
  1 10  1  0
  4  5  1  0
  1  2  1  0
  2  7  1  0
  1 11  1  0
  1  9  1  0
  5  7  1  0
  5 15  1  0
  5  6  1  0
  6 17  1  0
  6  7  1  0
  7  8  1  0
  6 16  1  0
  8 19  1  0
  8 18  1  0
  8 20  1  0
M  END
$$$$

     RDKit          3D

 17 18  0  0  0  0  0  0  0  0999 V2000
    0.9355   -2.2062   -1.0678 O   0  0  0  0  0  0  0  0  0  0  0  0
    1.2532   -1.4629    0.0031 C   0  0  0  0  0  0  0  0  0  0  0  0
    2.4115   -1.4503    0.4108 O   0  0  0  0  0  0  0  0  0  0  0  0
    0.1060   -0.7111    0.6912 C   0  0  0  0  0  0  0  0  0  0  0  0
   -1.2118   -0.7998   -0.0229 N   0  0  0  0  0  0  0  0  0  0  0  0
   -1.9242   -0.7838    0.7012 H   0  0  0  0  0  0  0  0  0  0  0  0
    1.7782   -2.5946   -1.3680 H   0  0  0  0  0  0  0  0  0  0  0  0
   -1.3564    0.4271   -0.8154 C   0  0  0  0  0  0  0  0  0  0  0  0
   -0.5592    1.4583   -0.0846 C   0  0  0  0  0  0  0  0  0  0  0  0
    0.8854    1.5686   -0.2814 N   0  0  0  0  0  0  0  0  0  0  0  0
    0.3712    0.7664    0.8339 C   0  0  0  0  0  0  0  0  0  0  0  0
   -0.0178   -1.1875    1.6699 H   0  0  0  0  0  0  0  0  0  0  0  0
   -2.4148    0.6963   -0.8694 H   0  0  0  0  0  0  0  0  0  0  0  0
   -0.9655    0.2962   -1.8313 H   0  0  0  0  0  0  0  0  0  0  0  0
   -1.0736    2.4034    0.0999 H   0  0  0  0  0  0  0  0  0  0  0  0
    1.2742    2.4546    0.0880 H   0  0  0  0  0  0  0  0  0  0  0  0
    0.5081    1.1251    1.8430 H   0  0  0  0  0  0  0  0  0  0  0  0
  5  6  1  0
  4 12  1  0
  4  5  1  0
  5  8  1  0
  2  3  2  0
  8 13  1  0
  2  4  1  0
  4 11  1  0
  1  2  1  0
  1  7  1  0
  8 14  1  0
  8  9  1  0
 11 17  1  0
  9 11  1  0
 10 11  1  0
  9 15  1  0
  9 10  1  0
 10 16  1  0
M  END
$$$$

     RDKit          3D

 17 18  0  0  0  0  0  0  0  0999 V2000
   -1.5925   -2.7586    1.1594 C   0  0  0  0  0  0  0  0  0  0  0  0
   -0.8553   -1.4850    1.1412 C   0  0  0  0  0  0  0  0  0  0  0  0
   -0.2258   -0.4669    1.0425 C   0  0  0  0  0  0  0  0  0  0  0  0
    0.6550    0.6713    0.8133 C   0  0  0  0  0  0  0  0  0  0  0  0
    1.8965    0.2081    0.2022 O   0  0  0  0  0  0  0  0  0  0  0  0
    1.6903    1.0382   -0.9547 C   0  0  0  0  0  0  0  0  0  0  0  0
    0.4940    0.7972   -1.8152 C   0  0  0  0  0  0  0  0  0  0  0  0
    0.3336    1.3973   -0.4647 C   0  0  0  0  0  0  0  0  0  0  0  0
   -0.0065    2.7882   -0.3777 O   0  0  0  0  0  0  0  0  0  0  0  0
   -1.6023   -3.2089    2.1770 H   0  0  0  0  0  0  0  0  0  0  0  0
   -1.1431   -3.4930    0.4773 H   0  0  0  0  0  0  0  0  0  0  0  0
   -2.6452   -2.5963    0.8558 H   0  0  0  0  0  0  0  0  0  0  0  0
    0.8398    1.3109    1.6945 H   0  0  0  0  0  0  0  0  0  0  0  0
    2.5010    1.6415   -1.4314 H   0  0  0  0  0  0  0  0  0  0  0  0
    0.1974   -0.2274   -1.9764 H   0  0  0  0  0  0  0  0  0  0  0  0
    0.2952    1.4570   -2.6563 H   0  0  0  0  0  0  0  0  0  0  0  0
   -0.8321    2.9263    0.1130 H   0  0  0  0  0  0  0  0  0  0  0  0
  9 17  1  0
  8  9  1  0
  1 10  1  0
  4 13  1  0
  1 11  1  0
  4  8  1  0
  7  8  1  0
  6  8  1  0
  1  2  1  0
  1 12  1  0
  2  3  3  0
  3  4  1  0
  4  5  1  0
  7 15  1  0
  6  7  1  0
  7 16  1  0
  5  6  1  0
  6 14  1  0
M  END
$$$$

     RDKit          3D

 25 25  0  0  0  0  0  0  0  0999 V2000
    0.1790   -1.6542    1.3933 C   0  0  0  0  0  0  0  0  0  0  0  0
    0.9372   -0.7246    0.3268 C   0  0  0  0  0  0  0  0  0  0  0  0
    2.4094   -0.8713    0.0351 C   0  0  0  0  0  0  0  0  0  0  0  0
    2.7175   -0.1243   -1.2043 O   0  0  0  0  0  0  0  0  0  0  0  0
    0.0935    0.6465    0.0274 C   0  0  0  0  0  0  0  0  0  0  0  0
   -1.2391    0.1257   -0.5936 C   0  0  0  0  0  0  0  0  0  0  0  0
   -0.7377    0.1135   -2.0249 C   0  0  0  0  0  0  0  0  0  0  0  0
   -1.1336    0.9814    0.6908 C   0  0  0  0  0  0  0  0  0  0  0  0
   -2.0555    2.0576    0.7342 C   0  0  0  0  0  0  0  0  0  0  0  0
   -0.9424   -1.7322    1.4304 H   0  0  0  0  0  0  0  0  0  0  0  0
    0.2714   -2.7484    1.2596 H   0  0  0  0  0  0  0  0  0  0  0  0
    0.3492   -1.3947    2.4857 H   0  0  0  0  0  0  0  0  0  0  0  0
    0.6214   -1.0988   -0.7546 H   0  0  0  0  0  0  0  0  0  0  0  0
    2.7232   -1.8710   -0.2440 H   0  0  0  0  0  0  0  0  0  0  0  0
    3.1424   -0.3412    0.8850 H   0  0  0  0  0  0  0  0  0  0  0  0
    3.0616    0.8475   -1.0349 H   0  0  0  0  0  0  0  0  0  0  0  0
    0.7359    1.5731    0.4478 H   0  0  0  0  0  0  0  0  0  0  0  0
   -1.6749   -0.9082   -0.6047 H   0  0  0  0  0  0  0  0  0  0  0  0
   -0.3952   -1.1133   -2.2480 H   0  0  0  0  0  0  0  0  0  0  0  0
   -1.5219    0.0833   -2.8046 H   0  0  0  0  0  0  0  0  0  0  0  0
    0.1807    0.5685   -2.1940 H   0  0  0  0  0  0  0  0  0  0  0  0
   -0.7194    0.8756    1.7927 H   0  0  0  0  0  0  0  0  0  0  0  0
   -3.0140    1.4868    0.5602 H   0  0  0  0  0  0  0  0  0  0  0  0
   -2.1953    2.5202    1.7796 H   0  0  0  0  0  0  0  0  0  0  0  0
   -1.7934    2.7026   -0.1409 H   0  0  0  0  0  0  0  0  0  0  0  0
  7 21  1  0
  7 20  1  0
  7 19  1  0
  6  7  1  0
  1 11  1  0
  6 18  1  0
  5  6  1  0
  6  8  1  0
  1 10  1  0
  1 12  1  0
  1  2  1  0
  2 13  1  0
  9 23  1  0
  9 25  1  0
  5  8  1  0
  2  5  1  0
  5 17  1  0
  8  9  1  0
  8 22  1  0
  2  3  1  0
  9 24  1  0
  3  4  1  0
  3 15  1  0
  3 14  1  0
  4 16  1  0
M  END
$$$$

     RDKit          3D

 14 13  0  0  0  0  0  0  0  0999 V2000
    1.2696   -1.7689    1.1000 O   0  0  0  0  0  0  0  0  0  0  0  0
    1.2127   -0.4215    1.5651 C   0  0  0  0  0  0  0  0  0  0  0  0
    1.2934    0.5482    0.3870 C   0  0  0  0  0  0  0  0  0  0  0  0
    0.0550    0.5406   -0.4083 C   0  0  0  0  0  0  0  0  0  0  0  0
   -0.9506    0.5059   -1.0674 C   0  0  0  0  0  0  0  0  0  0  0  0
   -2.1628    0.4303   -1.8736 C   0  0  0  0  0  0  0  0  0  0  0  0
   -2.0069   -0.4320   -2.9037 F   0  0  0  0  0  0  0  0  0  0  0  0
   -3.2102    0.0063   -1.1296 F   0  0  0  0  0  0  0  0  0  0  0  0
   -2.4784    1.6420   -2.3880 F   0  0  0  0  0  0  0  0  0  0  0  0
    1.0178   -2.3402    1.8440 H   0  0  0  0  0  0  0  0  0  0  0  0
    0.2900   -0.2825    2.1352 H   0  0  0  0  0  0  0  0  0  0  0  0
    2.0669   -0.2669    2.2322 H   0  0  0  0  0  0  0  0  0  0  0  0
    2.1345    0.2795   -0.2584 H   0  0  0  0  0  0  0  0  0  0  0  0
    1.4692    1.5593    0.7656 H   0  0  0  0  0  0  0  0  0  0  0  0
  6  8  1  0
  2 11  1  0
  3 14  1  0
  5  6  1  0
  6  7  1  0
  6  9  1  0
  4  5  3  0
  1  2  1  0
  2  3  1  0
  2 12  1  0
  3  4  1  0
  1 10  1  0
  3 13  1  0
M  END
$$$$

     RDKit          3D

 16 17  0  0  0  0  0  0  0  0999 V2000
    0.8887    1.3788   -1.0988 C   0  0  0  0  0  0  0  0  0  0  0  0
    0.9211    0.2134   -0.1302 C   0  0  0  0  0  0  0  0  0  0  0  0
    0.2397   -1.0109   -0.7160 C   0  0  0  0  0  0  0  0  0  0  0  0
    0.4876   -1.5479   -1.7820 O   0  0  0  0  0  0  0  0  0  0  0  0
   -0.8045   -1.5013    0.2177 C   0  0  0  0  0  0  0  0  0  0  0  0
   -1.9740   -0.6530    0.4415 N   0  0  0  0  0  0  0  0  0  0  0  0
   -0.8638   -0.5327    1.3850 C   0  0  0  0  0  0  0  0  0  0  0  0
    0.1452    0.5269    1.1370 C   0  0  0  0  0  0  0  0  0  0  0  0
    0.3011    1.4859    1.8738 O   0  0  0  0  0  0  0  0  0  0  0  0
    1.4289    1.1367   -2.0200 H   0  0  0  0  0  0  0  0  0  0  0  0
    1.3483    2.2684   -0.6566 H   0  0  0  0  0  0  0  0  0  0  0  0
   -0.1389    1.6395   -1.3758 H   0  0  0  0  0  0  0  0  0  0  0  0
    1.9437   -0.0593    0.1488 H   0  0  0  0  0  0  0  0  0  0  0  0
   -0.9000   -2.5621    0.4008 H   0  0  0  0  0  0  0  0  0  0  0  0
   -2.0227    0.1319   -0.2120 H   0  0  0  0  0  0  0  0  0  0  0  0
   -1.0006   -0.9143    2.3869 H   0  0  0  0  0  0  0  0  0  0  0  0
  3  4  2  0
  5 14  1  0
  3  5  1  0
  2  3  1  0
  1 11  1  0
  5  6  1  0
  5  7  1  0
  2 13  1  0
  1  2  1  0
  2  8  1  0
  1 10  1  0
  1 12  1  0
  6 15  1  0
  6  7  1  0
  7  8  1  0
  7 16  1  0
  8  9  2  0
M  END
$$$$

     RDKit          3D

 13 13  0  0  0  0  0  0  0  0999 V2000
    0.2325   -2.6199    1.1984 O   0  0  0  0  0  0  0  0  0  0  0  0
   -0.0702   -1.5974    0.5728 C   0  0  0  0  0  0  0  0  0  0  0  0
    0.5130   -0.2164    0.8364 C   0  0  0  0  0  0  0  0  0  0  0  0
    0.0050    1.0404    0.1296 C   0  0  0  0  0  0  0  0  0  0  0  0
    1.2057    1.0754   -0.6926 O   0  0  0  0  0  0  0  0  0  0  0  0
    1.7321   -0.0076   -0.0673 C   0  0  0  0  0  0  0  0  0  0  0  0
    2.8101   -0.5202   -0.2557 O   0  0  0  0  0  0  0  0  0  0  0  0
   -1.1668    0.9480   -0.7167 C   0  0  0  0  0  0  0  0  0  0  0  0
   -2.1375    0.8765   -1.4234 C   0  0  0  0  0  0  0  0  0  0  0  0
   -0.8504   -1.6639   -0.2107 H   0  0  0  0  0  0  0  0  0  0  0  0
    0.7442   -0.0543    1.8984 H   0  0  0  0  0  0  0  0  0  0  0  0
   -0.0256    1.9142    0.7927 H   0  0  0  0  0  0  0  0  0  0  0  0
   -2.9922    0.8251   -2.0618 H   0  0  0  0  0  0  0  0  0  0  0  0
  9 13  1  0
  8  9  3  0
  4 12  1  0
  4  8  1  0
  4  5  1  0
  3  4  1  0
  1  2  2  0
  5  6  1  0
  2  3  1  0
  2 10  1  0
  3 11  1  0
  3  6  1  0
  6  7  2  0
M  END
$$$$

     RDKit          3D

 25 25  0  0  0  0  0  0  0  0999 V2000
    2.4205    2.2667   -0.3510 C   0  0  0  0  0  0  0  0  0  0  0  0
    1.4508    1.0505    0.0123 C   0  0  0  0  0  0  0  0  0  0  0  0
   -0.0823    1.1840    0.4989 C   0  0  0  0  0  0  0  0  0  0  0  0
   -0.4147   -0.1052    1.4594 C   0  0  0  0  0  0  0  0  0  0  0  0
   -1.5067   -1.0153    0.8944 C   0  0  0  0  0  0  0  0  0  0  0  0
   -2.0996   -0.6832   -0.3912 C   0  0  0  0  0  0  0  0  0  0  0  0
   -0.9810   -1.0161   -1.3459 C   0  0  0  0  0  0  0  0  0  0  0  0
   -0.3755   -2.2071   -0.6900 C   0  0  0  0  0  0  0  0  0  0  0  0
   -0.7005   -2.3050    0.6422 O   0  0  0  0  0  0  0  0  0  0  0  0
    1.8859    3.1977   -0.6375 H   0  0  0  0  0  0  0  0  0  0  0  0
    3.1091    1.8828   -1.1392 H   0  0  0  0  0  0  0  0  0  0  0  0
    3.1961    2.4866    0.5619 H   0  0  0  0  0  0  0  0  0  0  0  0
    1.6003    0.1948   -0.6816 H   0  0  0  0  0  0  0  0  0  0  0  0
    1.9305    0.6885    1.0033 H   0  0  0  0  0  0  0  0  0  0  0  0
   -0.8398    1.4103   -0.2322 H   0  0  0  0  0  0  0  0  0  0  0  0
   -0.0459    1.9167    1.1781 H   0  0  0  0  0  0  0  0  0  0  0  0
   -0.7182    0.3289    2.4427 H   0  0  0  0  0  0  0  0  0  0  0  0
    0.4996   -0.6666    1.6370 H   0  0  0  0  0  0  0  0  0  0  0  0
   -2.0854   -1.3725    1.8268 H   0  0  0  0  0  0  0  0  0  0  0  0
   -2.9865   -1.4485   -0.5399 H   0  0  0  0  0  0  0  0  0  0  0  0
   -2.5489    0.2871   -0.4964 H   0  0  0  0  0  0  0  0  0  0  0  0
   -0.2413   -0.2442   -1.2111 H   0  0  0  0  0  0  0  0  0  0  0  0
   -0.8718   -0.8529   -2.3890 H   0  0  0  0  0  0  0  0  0  0  0  0
    0.6460   -1.8630   -0.6366 H   0  0  0  0  0  0  0  0  0  0  0  0
   -0.2407   -3.1152   -1.4152 H   0  0  0  0  0  0  0  0  0  0  0  0
  2 14  1  0
  1 11  1  0
  1 10  1  0
  1  2  1  0
  1 12  1  0
  2 13  1  0
  2  3  1  0
  4 18  1  0
  3 15  1  0
  3  4  1  0
  3 16  1  0
  4 17  1  0
  4  5  1  0
  6 21  1  0
  8 25  1  0
  5  9  1  0
  8  9  1  0
  5  6  1  0
  5 19  1  0
  6 20  1  0
  6  7  1  0
  7  8  1  0
  8 24  1  0
  7 23  1  0
  7 22  1  0
M  END
$$$$

     RDKit          3D

 20 20  0  0  0  0  0  0  0  0999 V2000
    1.8768    1.3447   -1.5692 C   0  0  0  0  0  0  0  0  0  0  0  0
    0.9358    0.4877   -0.7223 C   0  0  0  0  0  0  0  0  0  0  0  0
   -0.4238    1.0874   -0.5283 C   0  0  0  0  0  0  0  0  0  0  0  0
   -1.6350    0.5128   -1.1445 N   0  0  0  0  0  0  0  0  0  0  0  0
   -1.4474    0.3323    0.3056 C   0  0  0  0  0  0  0  0  0  0  0  0
   -1.2170   -1.0596    0.8045 C   0  0  0  0  0  0  0  0  0  0  0  0
   -0.2590   -0.9777    1.8665 O   0  0  0  0  0  0  0  0  0  0  0  0
    0.3054   -2.1624    2.2096 C   0  0  0  0  0  0  0  0  0  0  0  0
    0.0754   -3.2554    1.7214 O   0  0  0  0  0  0  0  0  0  0  0  0
    1.6444    1.3385   -2.6382 H   0  0  0  0  0  0  0  0  0  0  0  0
    1.8820    2.3804   -1.2088 H   0  0  0  0  0  0  0  0  0  0  0  0
    2.8956    0.9751   -1.4672 H   0  0  0  0  0  0  0  0  0  0  0  0
    1.3957    0.3838    0.2541 H   0  0  0  0  0  0  0  0  0  0  0  0
    0.8726   -0.5102   -1.1372 H   0  0  0  0  0  0  0  0  0  0  0  0
   -0.4272    2.1835   -0.6157 H   0  0  0  0  0  0  0  0  0  0  0  0
   -2.3109    1.2611   -1.3270 H   0  0  0  0  0  0  0  0  0  0  0  0
   -2.1623    0.8641    0.9328 H   0  0  0  0  0  0  0  0  0  0  0  0
   -2.1702   -1.4732    1.1970 H   0  0  0  0  0  0  0  0  0  0  0  0
   -0.8149   -1.6934   -0.0045 H   0  0  0  0  0  0  0  0  0  0  0  0
    0.9841   -2.0196    3.0715 H   0  0  0  0  0  0  0  0  0  0  0  0
  5 17  1  0
  3 15  1  0
  4 16  1  0
  3  5  1  0
  4  5  1  0
  5  6  1  0
  3  4  1  0
  2  3  1  0
  6 19  1  0
  6  7  1  0
  7  8  1  0
  1 11  1  0
  6 18  1  0
  2 14  1  0
  8  9  2  0
  1  2  1  0
  2 13  1  0
  8 20  1  0
  1 10  1  0
  1 12  1  0
M  END
$$$$

     RDKit          3D

 17 17  0  0  0  0  0  0  0  0999 V2000
   -1.6064    1.3732    0.8240 O   0  0  0  0  0  0  0  0  0  0  0  0
   -0.4455    0.7214    1.3239 C   0  0  0  0  0  0  0  0  0  0  0  0
   -0.0133   -0.4292    0.4491 C   0  0  0  0  0  0  0  0  0  0  0  0
    1.2845   -0.2808   -0.3007 C   0  0  0  0  0  0  0  0  0  0  0  0
    1.3034    0.9699   -0.9996 O   0  0  0  0  0  0  0  0  0  0  0  0
    0.4124    1.0178   -2.0181 C   0  0  0  0  0  0  0  0  0  0  0  0
   -0.4078    1.9269   -2.1529 O   0  0  0  0  0  0  0  0  0  0  0  0
   -0.5846   -1.8127    0.7448 C   0  0  0  0  0  0  0  0  0  0  0  0
   -1.0556   -1.0252   -0.3476 O   0  0  0  0  0  0  0  0  0  0  0  0
   -1.4501    1.5733   -0.1118 H   0  0  0  0  0  0  0  0  0  0  0  0
    0.3567    1.4643    1.4210 H   0  0  0  0  0  0  0  0  0  0  0  0
   -0.6777    0.3538    2.3297 H   0  0  0  0  0  0  0  0  0  0  0  0
    1.4628   -1.1051   -1.0006 H   0  0  0  0  0  0  0  0  0  0  0  0
    2.1220   -0.2885    0.4013 H   0  0  0  0  0  0  0  0  0  0  0  0
    0.4969    0.1500   -2.7003 H   0  0  0  0  0  0  0  0  0  0  0  0
   -1.2361   -1.9411    1.5988 H   0  0  0  0  0  0  0  0  0  0  0  0
    0.0386   -2.6681    0.5392 H   0  0  0  0  0  0  0  0  0  0  0  0
  4 13  1  0
  4  5  1  0
  5  6  1  0
  4 14  1  0
  3  4  1  0
  2 11  1  0
  6  7  2  0
  6 15  1  0
  1 10  1  0
  2  3  1  0
  3  8  1  0
  3  9  1  0
  1  2  1  0
  2 12  1  0
  8 16  1  0
  8 17  1  0
  8  9  1  0
M  END
$$$$

     RDKit          3D

 16 16  0  0  0  0  0  0  0  0999 V2000
    1.0085    1.2801   -2.7479 N   0  0  0  0  0  0  0  0  0  0  0  0
    1.5685    0.4525   -1.7112 C   0  0  0  0  0  0  0  0  0  0  0  0
    0.5546   -0.1674   -0.9377 O   0  0  0  0  0  0  0  0  0  0  0  0
    1.0478   -0.5028    0.3356 C   0  0  0  0  0  0  0  0  0  0  0  0
   -0.0298   -0.9922    1.2810 C   0  0  0  0  0  0  0  0  0  0  0  0
    0.0199   -2.0931    1.8044 O   0  0  0  0  0  0  0  0  0  0  0  0
   -1.0895   -0.0304    1.6457 C   0  0  0  0  0  0  0  0  0  0  0  0
   -2.0209    0.5809    0.6300 C   0  0  0  0  0  0  0  0  0  0  0  0
   -2.4299   -0.5279    1.4394 O   0  0  0  0  0  0  0  0  0  0  0  0
    1.0833    0.7875   -3.6390 H   0  0  0  0  0  0  0  0  0  0  0  0
    2.2432   -0.2964   -2.1287 H   0  0  0  0  0  0  0  0  0  0  0  0
    1.5236    0.3710    0.8125 H   0  0  0  0  0  0  0  0  0  0  0  0
    1.7917   -1.3058    0.2190 H   0  0  0  0  0  0  0  0  0  0  0  0
   -0.9171    0.5233    2.5565 H   0  0  0  0  0  0  0  0  0  0  0  0
   -2.4722    1.5322    0.8601 H   0  0  0  0  0  0  0  0  0  0  0  0
   -1.8817    0.3886   -0.4196 H   0  0  0  0  0  0  0  0  0  0  0  0
  4 13  1  0
  4 12  1  0
  4  5  1  0
  3  4  1  0
  5  6  2  0
  5  7  1  0
  2  3  1  0
  2 11  1  0
  1  2  1  0
  7 14  1  0
  7  9  1  0
  7  8  1  0
  8  9  1  0
  1 10  1  0
  8 16  1  0
  8 15  1  0
M  END
$$$$

     RDKit          3D

 21 22  0  0  0  0  0  0  0  0999 V2000
    2.8016    1.8585    0.7889 O   0  0  0  0  0  0  0  0  0  0  0  0
    1.5317    1.1754    0.8696 C   0  0  0  0  0  0  0  0  0  0  0  0
    0.2621    1.5716   -0.0018 C   0  0  0  0  0  0  0  0  0  0  0  0
    0.1105   -0.0456   -0.2035 C   0  0  0  0  0  0  0  0  0  0  0  0
    1.6365   -0.0931    0.0214 C   0  0  0  0  0  0  0  0  0  0  0  0
   -0.6523   -1.1544    0.5960 C   0  0  0  0  0  0  0  0  0  0  0  0
   -1.5862   -1.5664   -0.6144 C   0  0  0  0  0  0  0  0  0  0  0  0
   -1.9801   -0.2184   -1.3388 C   0  0  0  0  0  0  0  0  0  0  0  0
   -0.5017   -0.0647   -1.5865 O   0  0  0  0  0  0  0  0  0  0  0  0
    3.1069    1.4808    1.5910 H   0  0  0  0  0  0  0  0  0  0  0  0
    1.1704    1.1248    1.9791 H   0  0  0  0  0  0  0  0  0  0  0  0
   -0.6135    1.8624    0.6099 H   0  0  0  0  0  0  0  0  0  0  0  0
    0.4435    2.4460   -0.7077 H   0  0  0  0  0  0  0  0  0  0  0  0
    2.1364   -0.2059   -0.9955 H   0  0  0  0  0  0  0  0  0  0  0  0
    1.9354   -1.0052    0.5402 H   0  0  0  0  0  0  0  0  0  0  0  0
   -1.1848   -0.6685    1.4443 H   0  0  0  0  0  0  0  0  0  0  0  0
    0.0299   -1.9847    1.0114 H   0  0  0  0  0  0  0  0  0  0  0  0
   -1.0780   -2.3395   -1.2662 H   0  0  0  0  0  0  0  0  0  0  0  0
   -2.4052   -2.1916   -0.2506 H   0  0  0  0  0  0  0  0  0  0  0  0
   -2.4673    0.1344   -0.2951 H   0  0  0  0  0  0  0  0  0  0  0  0
   -2.6960   -0.1162   -2.1920 H   0  0  0  0  0  0  0  0  0  0  0  0
  1 10  1  0
  1  2  1  0
  5 15  1  0
  2 11  1  0
  5 14  1  0
  2  5  1  0
  2  3  1  0
  4  5  1  0
  6 16  1  0
  3  4  1  0
  3 13  1  0
  3 12  1  0
  4  6  1  0
  4  9  1  0
  6 17  1  0
  6  7  1  0
  8  9  1  0
  8 20  1  0
  7  8  1  0
  8 21  1  0
  7 18  1  0
  7 19  1  0
M  END
$$$$

     RDKit          3D

 17 16  0  0  0  0  0  0  0  0999 V2000
   -0.7353   -1.7637    1.9472 O   0  0  0  0  0  0  0  0  0  0  0  0
   -0.5406   -1.5191    0.5646 C   0  0  0  0  0  0  0  0  0  0  0  0
    0.7544   -0.7355    0.3410 C   0  0  0  0  0  0  0  0  0  0  0  0
    0.6067    0.7839    0.5011 C   0  0  0  0  0  0  0  0  0  0  0  0
    0.1762    1.1008    1.8208 O   0  0  0  0  0  0  0  0  0  0  0  0
   -0.3132    1.4084   -0.5537 C   0  0  0  0  0  0  0  0  0  0  0  0
   -1.2692    2.1213   -0.2684 O   0  0  0  0  0  0  0  0  0  0  0  0
    0.0318    1.1998   -1.9475 C   0  0  0  0  0  0  0  0  0  0  0  0
    0.3182    1.0331   -3.1032 C   0  0  0  0  0  0  0  0  0  0  0  0
   -1.6115   -2.1738    2.0551 H   0  0  0  0  0  0  0  0  0  0  0  0
   -1.4139   -0.9989    0.1630 H   0  0  0  0  0  0  0  0  0  0  0  0
   -0.4684   -2.4942    0.0708 H   0  0  0  0  0  0  0  0  0  0  0  0
    1.1301   -0.9596   -0.6637 H   0  0  0  0  0  0  0  0  0  0  0  0
    1.5033   -1.0866    1.0631 H   0  0  0  0  0  0  0  0  0  0  0  0
    1.5919    1.2512    0.3739 H   0  0  0  0  0  0  0  0  0  0  0  0
   -0.3275    1.9400    1.7673 H   0  0  0  0  0  0  0  0  0  0  0  0
    0.5670    0.8928   -4.1314 H   0  0  0  0  0  0  0  0  0  0  0  0
  9 17  1  0
  8  9  3  0
  6  8  1  0
  3 14  1  0
  2 11  1  0
  4 15  1  0
  1 10  1  0
  1  2  1  0
  2  3  1  0
  3  4  1  0
  3 13  1  0
  4  6  1  0
  6  7  2  0
  2 12  1  0
  4  5  1  0
  5 16  1  0
M  END
$$$$

     RDKit          3D

 22 22  0  0  0  0  0  0  0  0999 V2000
   -1.1845    1.8501    2.1990 C   0  0  0  0  0  0  0  0  0  0  0  0
   -0.9446    1.0197    0.9918 C   0  0  0  0  0  0  0  0  0  0  0  0
   -0.9894   -0.4808    1.0825 C   0  0  0  0  0  0  0  0  0  0  0  0
    0.3240    0.2130    0.8131 C   0  0  0  0  0  0  0  0  0  0  0  0
    0.9901    0.3165   -0.5261 C   0  0  0  0  0  0  0  0  0  0  0  0
    0.8049   -0.8694   -1.4546 C   0  0  0  0  0  0  0  0  0  0  0  0
   -0.4325   -0.8876   -2.3318 C   0  0  0  0  0  0  0  0  0  0  0  0
    1.6379   -1.8691   -1.5737 N   0  0  0  0  0  0  0  0  0  0  0  0
    2.7121   -1.7708   -0.6890 O   0  0  0  0  0  0  0  0  0  0  0  0
   -1.0005    2.9128    1.9727 H   0  0  0  0  0  0  0  0  0  0  0  0
   -0.5491    1.5904    3.0415 H   0  0  0  0  0  0  0  0  0  0  0  0
   -2.2178    1.7687    2.5158 H   0  0  0  0  0  0  0  0  0  0  0  0
   -1.4009    1.4453    0.1075 H   0  0  0  0  0  0  0  0  0  0  0  0
   -1.1193   -0.9299    2.0631 H   0  0  0  0  0  0  0  0  0  0  0  0
   -1.4851   -1.0429    0.2905 H   0  0  0  0  0  0  0  0  0  0  0  0
    1.0591    0.1751    1.6219 H   0  0  0  0  0  0  0  0  0  0  0  0
    0.6266    1.1962   -1.0835 H   0  0  0  0  0  0  0  0  0  0  0  0
    2.0508    0.5052   -0.3493 H   0  0  0  0  0  0  0  0  0  0  0  0
   -1.0947   -1.6840   -1.9988 H   0  0  0  0  0  0  0  0  0  0  0  0
   -0.1426   -1.0784   -3.3678 H   0  0  0  0  0  0  0  0  0  0  0  0
   -0.9703    0.0658   -2.2864 H   0  0  0  0  0  0  0  0  0  0  0  0
    3.3259   -2.4460   -1.0385 H   0  0  0  0  0  0  0  0  0  0  0  0
  1 11  1  0
  2 13  1  0
  3 14  1  0
  1  2  1  0
  1 12  1  0
  1 10  1  0
  2  3  1  0
  2  4  1  0
  3 15  1  0
  3  4  1  0
  4 16  1  0
  4  5  1  0
  5 17  1  0
  5 18  1  0
  5  6  1  0
  6  8  2  3
  6  7  1  0
  8  9  1  0
  7 19  1  0
  7 21  1  0
  7 20  1  0
  9 22  1  0
M  END
$$$$

     RDKit          3D

 15 16  0  0  0  0  0  0  0  0999 V2000
   -1.2661    1.8835    1.0889 O   0  0  0  0  0  0  0  0  0  0  0  0
   -0.4483    1.0167    0.2567 C   0  0  0  0  0  0  0  0  0  0  0  0
   -1.0142   -0.3232   -0.3108 C   0  0  0  0  0  0  0  0  0  0  0  0
    0.1270   -1.0176   -1.0806 C   0  0  0  0  0  0  0  0  0  0  0  0
    1.2573   -0.7133   -0.0727 C   0  0  0  0  0  0  0  0  0  0  0  0
    0.4122   -0.0702    1.0090 C   0  0  0  0  0  0  0  0  0  0  0  0
   -0.8563   -0.8638    1.0804 O   0  0  0  0  0  0  0  0  0  0  0  0
   -1.1980    2.7595    0.6683 H   0  0  0  0  0  0  0  0  0  0  0  0
    0.1983    1.6176   -0.3799 H   0  0  0  0  0  0  0  0  0  0  0  0
   -2.0340   -0.3256   -0.6994 H   0  0  0  0  0  0  0  0  0  0  0  0
   -0.0445   -2.0951   -1.2618 H   0  0  0  0  0  0  0  0  0  0  0  0
    0.3019   -0.5212   -2.0539 H   0  0  0  0  0  0  0  0  0  0  0  0
    1.9482    0.0140   -0.5279 H   0  0  0  0  0  0  0  0  0  0  0  0
    1.7909   -1.5826    0.3047 H   0  0  0  0  0  0  0  0  0  0  0  0
    0.8255    0.2213    1.9789 H   0  0  0  0  0  0  0  0  0  0  0  0
  6 15  1  0
  2  9  1  0
  1  8  1  0
  1  2  1  0
  2  6  1  0
  2  3  1  0
  6  7  1  0
  5  6  1  0
  3  7  1  0
  5 14  1  0
  5 13  1  0
  4  5  1  0
  3 10  1  0
  3  4  1  0
  4 12  1  0
  4 11  1  0
M  END
$$$$

     RDKit          3D

 15 17  0  0  0  0  0  0  0  0999 V2000
    1.6390    1.2480    1.1189 O   0  0  0  0  0  0  0  0  0  0  0  0
    0.3380    0.6289    0.5916 C   0  0  0  0  0  0  0  0  0  0  0  0
   -0.4217   -0.2332    1.4824 C   0  0  0  0  0  0  0  0  0  0  0  0
   -0.5772   -1.4907    0.7298 O   0  0  0  0  0  0  0  0  0  0  0  0
   -0.3027   -1.1331   -0.7264 C   0  0  0  0  0  0  0  0  0  0  0  0
    0.6854   -0.0914   -0.6859 C   0  0  0  0  0  0  0  0  0  0  0  0
   -0.3510    1.0345   -0.6939 C   0  0  0  0  0  0  0  0  0  0  0  0
   -1.1979   -0.0227   -1.3524 C   0  0  0  0  0  0  0  0  0  0  0  0
   -2.1928    0.1462   -2.0293 O   0  0  0  0  0  0  0  0  0  0  0  0
    2.2695    0.5096    1.3584 H   0  0  0  0  0  0  0  0  0  0  0  0
    0.1538   -0.3284    2.4550 H   0  0  0  0  0  0  0  0  0  0  0  0
   -1.5096   -0.1745    1.8724 H   0  0  0  0  0  0  0  0  0  0  0  0
   -0.0428   -2.0267   -1.3452 H   0  0  0  0  0  0  0  0  0  0  0  0
    1.5539    0.0711   -1.4285 H   0  0  0  0  0  0  0  0  0  0  0  0
   -0.0439    1.8625   -1.3468 H   0  0  0  0  0  0  0  0  0  0  0  0
  3 11  1  0
  3  4  1  0
  4  5  1  0
  3 12  1  0
  2  3  1  0
  5 13  1  0
  5  6  1  0
  5  8  1  0
  6 14  1  0
  1  2  1  0
  2  6  1  0
  2  7  1  0
  1 10  1  0
  6  7  1  0
  7  8  1  0
  8  9  2  0
  7 15  1  0
M  END
$$$$

     RDKit          3D

 19 21  0  0  0  0  0  0  0  0999 V2000
   -1.5254    0.3476    1.8548 O   0  0  0  0  0  0  0  0  0  0  0  0
   -0.5780    0.1506    0.8138 C   0  0  0  0  0  0  0  0  0  0  0  0
    0.0205    1.3382    0.0681 C   0  0  0  0  0  0  0  0  0  0  0  0
   -0.3548    0.6755   -1.2662 C   0  0  0  0  0  0  0  0  0  0  0  0
   -0.9955   -0.5060   -0.4987 C   0  0  0  0  0  0  0  0  0  0  0  0
   -0.2742   -1.8414   -0.4907 C   0  0  0  0  0  0  0  0  0  0  0  0
    1.0318   -1.6130    0.2570 C   0  0  0  0  0  0  0  0  0  0  0  0
    0.8258   -0.3863    1.1392 C   0  0  0  0  0  0  0  0  0  0  0  0
    1.4057    0.9566    0.6188 C   0  0  0  0  0  0  0  0  0  0  0  0
   -1.3715    1.2398    2.2016 H   0  0  0  0  0  0  0  0  0  0  0  0
   -0.3721    2.3369    0.2726 H   0  0  0  0  0  0  0  0  0  0  0  0
   -1.0749    1.2604   -1.8473 H   0  0  0  0  0  0  0  0  0  0  0  0
    0.4969    0.4338   -1.9126 H   0  0  0  0  0  0  0  0  0  0  0  0
   -2.0769   -0.5981   -0.6474 H   0  0  0  0  0  0  0  0  0  0  0  0
   -0.1139   -2.2231   -1.5006 H   0  0  0  0  0  0  0  0  0  0  0  0
   -0.8600   -2.5883    0.0568 H   0  0  0  0  0  0  0  0  0  0  0  0
    1.8596   -1.4684   -0.4489 H   0  0  0  0  0  0  0  0  0  0  0  0
    1.7353    1.6071    1.4385 H   0  0  0  0  0  0  0  0  0  0  0  0
    2.2216    0.8780   -0.1087 H   0  0  0  0  0  0  0  0  0  0  0  0
  5 14  1  0
  4 13  1  0
  4  5  1  0
  5  6  1  0
  2  5  1  0
  6 16  1  0
  6 15  1  0
  4 12  1  0
  3  4  1  0
  6  7  1  0
  1  2  1  0
  1 10  1  0
  2  3  1  0
  2  8  1  0
  3 11  1  0
  3  9  1  0
  7  8  1  0
  7 17  1  0
  8  9  1  0
  9 19  1  0
  9 18  1  0
M  END
$$$$

     RDKit          3D

 19 20  0  0  0  0  0  0  0  0999 V2000
    1.6802    0.8513   -1.4319 C   0  0  0  0  0  0  0  0  0  0  0  0
    0.5892    0.6711   -0.3833 C   0  0  0  0  0  0  0  0  0  0  0  0
    0.6800   -0.6215    0.5345 C   0  0  0  0  0  0  0  0  0  0  0  0
   -0.1993   -0.5266    1.7910 C   0  0  0  0  0  0  0  0  0  0  0  0
   -1.5782   -0.0283    1.4005 C   0  0  0  0  0  0  0  0  0  0  0  0
   -1.8875    0.2717    0.1247 C   0  0  0  0  0  0  0  0  0  0  0  0
   -0.8043    0.0995   -0.8929 C   0  0  0  0  0  0  0  0  0  0  0  0
   -0.1036   -1.3158   -0.6595 C   0  0  0  0  0  0  0  0  0  0  0  0
   -0.1350   -2.4135   -1.1622 O   0  0  0  0  0  0  0  0  0  0  0  0
    2.6353    1.0842   -0.9499 H   0  0  0  0  0  0  0  0  0  0  0  0
    1.8208   -0.0459   -2.0438 H   0  0  0  0  0  0  0  0  0  0  0  0
    1.4313    1.6819   -2.1004 H   0  0  0  0  0  0  0  0  0  0  0  0
    0.5056    1.6071    0.1867 H   0  0  0  0  0  0  0  0  0  0  0  0
    1.6897   -0.9976    0.7146 H   0  0  0  0  0  0  0  0  0  0  0  0
    0.2478    0.1630    2.5145 H   0  0  0  0  0  0  0  0  0  0  0  0
   -0.2868   -1.5098    2.2653 H   0  0  0  0  0  0  0  0  0  0  0  0
   -2.3248    0.0718    2.1845 H   0  0  0  0  0  0  0  0  0  0  0  0
   -2.8706    0.6173   -0.1748 H   0  0  0  0  0  0  0  0  0  0  0  0
   -1.0897    0.3403   -1.9175 H   0  0  0  0  0  0  0  0  0  0  0  0
  4 15  1  0
  4 16  1  0
  3 14  1  0
  3  4  1  0
  4  5  1  0
  3  8  1  0
  2  3  1  0
  1 11  1  0
  5 17  1  0
  5  6  2  0
  8  9  2  0
  7  8  1  0
  1 10  1  0
  1  2  1  0
  2 13  1  0
  2  7  1  0
  1 12  1  0
  6  7  1  0
  6 18  1  0
  7 19  1  0
M  END
$$$$

     RDKit          3D

 16 16  0  0  0  0  0  0  0  0999 V2000
   -0.2720    1.6455    1.3981 C   0  0  0  0  0  0  0  0  0  0  0  0
    0.6799    0.5014    1.0844 C   0  0  0  0  0  0  0  0  0  0  0  0
    0.1894   -0.3259   -0.0453 C   0  0  0  0  0  0  0  0  0  0  0  0
    0.5517   -0.4068   -1.3663 C   0  0  0  0  0  0  0  0  0  0  0  0
    1.5147    0.3301   -1.9232 O   0  0  0  0  0  0  0  0  0  0  0  0
   -0.1864   -1.3192   -2.0522 N   0  0  0  0  0  0  0  0  0  0  0  0
   -1.0116   -1.8158   -1.1577 C   0  0  0  0  0  0  0  0  0  0  0  0
   -0.8207   -1.2503    0.0740 N   0  0  0  0  0  0  0  0  0  0  0  0
    0.1154    2.2466    2.2289 H   0  0  0  0  0  0  0  0  0  0  0  0
   -0.3984    2.3071    0.5335 H   0  0  0  0  0  0  0  0  0  0  0  0
   -1.2631    1.2720    1.6861 H   0  0  0  0  0  0  0  0  0  0  0  0
    0.8059   -0.1246    1.9751 H   0  0  0  0  0  0  0  0  0  0  0  0
    1.6676    0.9126    0.8478 H   0  0  0  0  0  0  0  0  0  0  0  0
    1.5249    0.0750   -2.8610 H   0  0  0  0  0  0  0  0  0  0  0  0
   -1.7597   -2.5775   -1.3377 H   0  0  0  0  0  0  0  0  0  0  0  0
   -1.3375   -1.4702    0.9155 H   0  0  0  0  0  0  0  0  0  0  0  0
  5 14  1  0
  4  5  1  0
  4  6  1  0
  3  4  2  0
  2 12  1  0
  6  7  2  0
  1 10  1  0
  2  3  1  0
  3  8  1  0
  1  2  1  0
  2 13  1  0
  1  9  1  0
  1 11  1  0
  7  8  1  0
  7 15  1  0
  8 16  1  0
M  END
$$$$

     RDKit          3D

 18 19  0  0  0  0  0  0  0  0999 V2000
   -0.3704    2.5552    1.9424 O   0  0  0  0  0  0  0  0  0  0  0  0
    0.5112    1.7779    1.0755 N   0  0  0  0  0  0  0  0  0  0  0  0
   -0.2003    1.6776   -0.2111 C   0  0  0  0  0  0  0  0  0  0  0  0
    0.6672    0.8939   -1.1810 C   0  0  0  0  0  0  0  0  0  0  0  0
   -0.1655   -0.3646   -0.9115 C   0  0  0  0  0  0  0  0  0  0  0  0
    0.7954   -1.5770   -1.0249 C   0  0  0  0  0  0  0  0  0  0  0  0
   -0.1306   -1.6218    0.0844 C   0  0  0  0  0  0  0  0  0  0  0  0
    0.4154   -1.4046    1.4046 O   0  0  0  0  0  0  0  0  0  0  0  0
   -1.1774    0.5076   -0.1984 C   0  0  0  0  0  0  0  0  0  0  0  0
   -0.2818    2.0229    2.7750 H   0  0  0  0  0  0  0  0  0  0  0  0
    0.5654    1.2119   -2.2400 H   0  0  0  0  0  0  0  0  0  0  0  0
    1.7546    0.8396   -0.9553 H   0  0  0  0  0  0  0  0  0  0  0  0
    1.8833   -1.4941   -0.7621 H   0  0  0  0  0  0  0  0  0  0  0  0
    0.6341   -2.2547   -1.8780 H   0  0  0  0  0  0  0  0  0  0  0  0
   -0.9817   -2.3205    0.0084 H   0  0  0  0  0  0  0  0  0  0  0  0
   -0.2914   -1.3865    2.0866 H   0  0  0  0  0  0  0  0  0  0  0  0
   -1.5604    0.2227    0.7914 H   0  0  0  0  0  0  0  0  0  0  0  0
   -2.0670    0.7146   -0.8060 H   0  0  0  0  0  0  0  0  0  0  0  0
  8 16  1  0
  7  8  1  0
  7 15  1  0
  5  7  1  0
  6  7  1  0
  4 12  1  0
  9 17  1  0
  5  6  1  0
  4  5  1  0
  5  9  1  0
  6 14  1  0
  6 13  1  0
  3  4  1  0
  4 11  1  0
  3  9  1  0
  9 18  1  0
  2  3  1  0
  1  2  1  0
  1 10  1  0
M  END
$$$$

     RDKit          3D

 18 19  0  0  0  0  0  0  0  0999 V2000
    1.7221   -1.2572   -0.8017 C   0  0  0  0  0  0  0  0  0  0  0  0
    0.6066   -0.3895   -0.2961 C   0  0  0  0  0  0  0  0  0  0  0  0
    0.9065    0.4496    0.8951 N   0  0  0  0  0  0  0  0  0  0  0  0
   -0.2130    0.2044    1.7987 C   0  0  0  0  0  0  0  0  0  0  0  0
   -0.6464    1.4398    2.3994 N   0  0  0  0  0  0  0  0  0  0  0  0
   -1.2903   -0.4739    1.1422 O   0  0  0  0  0  0  0  0  0  0  0  0
   -0.7701   -0.9839   -0.1142 C   0  0  0  0  0  0  0  0  0  0  0  0
   -0.5220   -0.0126   -1.2432 C   0  0  0  0  0  0  0  0  0  0  0  0
   -1.1193    1.3262   -1.2071 N   0  0  0  0  0  0  0  0  0  0  0  0
    2.5755   -0.6374   -1.1110 H   0  0  0  0  0  0  0  0  0  0  0  0
    2.0529   -1.9582   -0.0234 H   0  0  0  0  0  0  0  0  0  0  0  0
    1.4121   -1.8541   -1.6623 H   0  0  0  0  0  0  0  0  0  0  0  0
   -1.4092    1.2218    3.0332 H   0  0  0  0  0  0  0  0  0  0  0  0
    0.1296    1.7877    2.9516 H   0  0  0  0  0  0  0  0  0  0  0  0
   -0.9401   -2.0259   -0.3632 H   0  0  0  0  0  0  0  0  0  0  0  0
   -0.4620   -0.4351   -2.2481 H   0  0  0  0  0  0  0  0  0  0  0  0
   -1.6217    1.5410   -2.0740 H   0  0  0  0  0  0  0  0  0  0  0  0
   -0.4113    2.0574   -1.0758 H   0  0  0  0  0  0  0  0  0  0  0  0
  9 18  1  0
  9 17  1  0
  8  9  1  0
  1 11  1  0
  8 16  1  0
  2  8  1  0
  7  8  1  0
  2  3  1  0
  3  4  1  0
  1  2  1  0
  1 10  1  0
  1 12  1  0
  2  7  1  0
  5 13  1  0
  4  5  1  0
  4  6  1  0
  5 14  1  0
  6  7  1  0
  7 15  1  0
M  END
$$$$

     RDKit          3D

 15 15  0  0  0  0  0  0  0  0999 V2000
    2.8810    0.5700   -0.9278 O   0  0  0  0  0  0  0  0  0  0  0  0
    2.2717    0.7510    0.1202 C   0  0  0  0  0  0  0  0  0  0  0  0
    2.8147    1.1671    1.2806 O   0  0  0  0  0  0  0  0  0  0  0  0
    0.8371    0.5267    0.2457 C   0  0  0  0  0  0  0  0  0  0  0  0
    0.1193    0.4292    1.3730 C   0  0  0  0  0  0  0  0  0  0  0  0
   -1.2040    0.2032    1.1120 N   0  0  0  0  0  0  0  0  0  0  0  0
   -1.4102   -0.0505   -0.3060 C   0  0  0  0  0  0  0  0  0  0  0  0
   -1.9460   -1.3178   -0.7205 N   0  0  0  0  0  0  0  0  0  0  0  0
   -2.0555   -1.3249   -1.7255 H   0  0  0  0  0  0  0  0  0  0  0  0
   -1.2591   -2.0322   -0.5110 H   0  0  0  0  0  0  0  0  0  0  0  0
   -0.0405    0.3027   -0.9476 C   0  0  0  0  0  0  0  0  0  0  0  0
    0.4629    0.4971    2.3977 H   0  0  0  0  0  0  0  0  0  0  0  0
   -1.6938   -0.4213    1.7502 H   0  0  0  0  0  0  0  0  0  0  0  0
    0.3522   -0.5078   -1.5770 H   0  0  0  0  0  0  0  0  0  0  0  0
   -0.1300    1.2074   -1.5640 H   0  0  0  0  0  0  0  0  0  0  0  0
 11 15  1  0
  2  3  1  0
  1  2  2  0
  2  4  1  0
  4 11  1  0
  4  5  2  0
  7 11  1  0
 11 14  1  0
  5 12  1  0
  5  6  1  0
  6  7  1  0
  7  8  1  0
  6 13  1  0
  8 10  1  0
  8  9  1  0
M  END
$$$$

     RDKit          3D

 15 17  0  0  0  0  0  0  0  0999 V2000
   -0.0946    3.0095    0.8539 O   0  0  0  0  0  0  0  0  0  0  0  0
    0.0344    1.8070    0.6704 C   0  0  0  0  0  0  0  0  0  0  0  0
   -0.5282    0.8695    1.5138 O   0  0  0  0  0  0  0  0  0  0  0  0
   -0.2170   -0.4659    1.0346 C   0  0  0  0  0  0  0  0  0  0  0  0
   -1.1563   -1.0337   -0.0612 C   0  0  0  0  0  0  0  0  0  0  0  0
   -0.0868   -0.7077   -1.1188 C   0  0  0  0  0  0  0  0  0  0  0  0
    0.0300    0.6466   -1.6180 O   0  0  0  0  0  0  0  0  0  0  0  0
    0.8368    1.0327   -0.4564 C   0  0  0  0  0  0  0  0  0  0  0  0
    0.9042   -0.4293   -0.0139 C   0  0  0  0  0  0  0  0  0  0  0  0
   -0.0478   -1.1524    1.8697 H   0  0  0  0  0  0  0  0  0  0  0  0
   -2.1036   -0.5010   -0.1867 H   0  0  0  0  0  0  0  0  0  0  0  0
   -1.3636   -2.1038    0.0445 H   0  0  0  0  0  0  0  0  0  0  0  0
    0.1733   -1.4720   -1.8531 H   0  0  0  0  0  0  0  0  0  0  0  0
    1.7864    1.4841   -0.7522 H   0  0  0  0  0  0  0  0  0  0  0  0
    1.8328   -0.9836    0.0736 H   0  0  0  0  0  0  0  0  0  0  0  0
  9 15  1  0
  8 14  1  0
  1  2  2  0
  2  8  1  0
  2  3  1  0
  8  9  1  0
  7  8  1  0
  4  9  1  0
  6  9  1  0
  4 10  1  0
  3  4  1  0
  4  5  1  0
  6  7  1  0
  5  6  1  0
  6 13  1  0
  5 11  1  0
  5 12  1  0
M  END
$$$$

     RDKit          3D

 16 16  0  0  0  0  0  0  0  0999 V2000
   -0.8425   -1.4236   -2.1938 C   0  0  0  0  0  0  0  0  0  0  0  0
   -0.5378   -0.5902   -1.0604 N   0  0  0  0  0  0  0  0  0  0  0  0
   -1.2403    0.5169   -0.6777 C   0  0  0  0  0  0  0  0  0  0  0  0
   -0.7093    1.0771    0.3871 N   0  0  0  0  0  0  0  0  0  0  0  0
    0.3933    0.2956    0.7072 C   0  0  0  0  0  0  0  0  0  0  0  0
    0.4960   -0.7568   -0.1845 C   0  0  0  0  0  0  0  0  0  0  0  0
    1.2983    0.5943    1.8082 C   0  0  0  0  0  0  0  0  0  0  0  0
    0.8649    1.6250    2.5942 N   0  0  0  0  0  0  0  0  0  0  0  0
    2.3543    0.0131    2.0240 O   0  0  0  0  0  0  0  0  0  0  0  0
   -1.0424   -0.7777   -3.0530 H   0  0  0  0  0  0  0  0  0  0  0  0
    0.0060   -2.0731   -2.4293 H   0  0  0  0  0  0  0  0  0  0  0  0
   -1.7314   -2.0164   -1.9462 H   0  0  0  0  0  0  0  0  0  0  0  0
   -2.1169    0.8732   -1.2092 H   0  0  0  0  0  0  0  0  0  0  0  0
    1.2109   -1.5678   -0.2636 H   0  0  0  0  0  0  0  0  0  0  0  0
    1.5438    2.0502    3.2186 H   0  0  0  0  0  0  0  0  0  0  0  0
    0.0529    2.1599    2.2785 H   0  0  0  0  0  0  0  0  0  0  0  0
  3 13  1  0
  1 11  1  0
  3  4  2  0
  2  3  1  0
  4  5  1  0
  8 15  1  0
  1  2  1  0
  1 10  1  0
  1 12  1  0
  2  6  1  0
  5  6  2  0
  5  7  1  0
  8 16  1  0
  7  8  1  0
  6 14  1  0
  7  9  2  0
M  END
$$$$

     RDKit          3D

 19 20  0  0  0  0  0  0  0  0999 V2000
    0.8107    1.6190   -0.8597 C   0  0  0  0  0  0  0  0  0  0  0  0
   -0.0420    0.7879    0.1164 C   0  0  0  0  0  0  0  0  0  0  0  0
    0.8269   -0.0811    1.0589 C   0  0  0  0  0  0  0  0  0  0  0  0
    0.7988   -1.5053    0.4264 C   0  0  0  0  0  0  0  0  0  0  0  0
   -0.4602   -1.6100   -0.3158 C   0  0  0  0  0  0  0  0  0  0  0  0
   -1.7448   -1.1841    0.2246 N   0  0  0  0  0  0  0  0  0  0  0  0
   -0.9424   -0.2112   -0.5692 C   0  0  0  0  0  0  0  0  0  0  0  0
   -1.0073    1.6454    0.8185 C   0  0  0  0  0  0  0  0  0  0  0  0
   -1.7135    2.4028    1.3371 N   0  0  0  0  0  0  0  0  0  0  0  0
    1.1404    2.5610   -0.3670 H   0  0  0  0  0  0  0  0  0  0  0  0
    0.2562    1.9518   -1.7541 H   0  0  0  0  0  0  0  0  0  0  0  0
    1.7151    1.1088   -1.2456 H   0  0  0  0  0  0  0  0  0  0  0  0
    0.3582   -0.1091    2.0421 H   0  0  0  0  0  0  0  0  0  0  0  0
    1.8666    0.2666    1.1407 H   0  0  0  0  0  0  0  0  0  0  0  0
    1.6424   -1.5985   -0.2821 H   0  0  0  0  0  0  0  0  0  0  0  0
    0.8380   -2.3078    1.1778 H   0  0  0  0  0  0  0  0  0  0  0  0
   -0.4895   -2.4108   -1.0508 H   0  0  0  0  0  0  0  0  0  0  0  0
   -2.5885   -1.3548   -0.2922 H   0  0  0  0  0  0  0  0  0  0  0  0
   -1.2652    0.0292   -1.6058 H   0  0  0  0  0  0  0  0  0  0  0  0
  3 13  1  0
  3 14  1  0
  4 16  1  0
  3  4  1  0
  2  3  1  0
  4 15  1  0
  1 11  1  0
  4  5  1  0
  8  9  3  0
  2  8  1  0
  1  2  1  0
  2  7  1  0
  1 10  1  0
  1 12  1  0
  5  6  1  0
  5  7  1  0
  5 17  1  0
  6  7  1  0
  6 18  1  0
  7 19  1  0
M  END
$$$$

     RDKit          3D

 23 22  0  0  0  0  0  0  0  0999 V2000
    2.0536    1.1627   -0.3677 C   0  0  0  0  0  0  0  0  0  0  0  0
    0.7973    1.1198   -1.2220 C   0  0  0  0  0  0  0  0  0  0  0  0
    0.1270   -0.2518   -1.3914 C   0  0  0  0  0  0  0  0  0  0  0  0
   -1.0365   -0.4793   -0.5926 O   0  0  0  0  0  0  0  0  0  0  0  0
   -0.9516   -0.2548    0.8156 C   0  0  0  0  0  0  0  0  0  0  0  0
   -1.7991   -1.3471    1.4819 C   0  0  0  0  0  0  0  0  0  0  0  0
   -1.5255    1.1194    1.1542 C   0  0  0  0  0  0  0  0  0  0  0  0
    1.0333   -1.4215   -1.3190 C   0  0  0  0  0  0  0  0  0  0  0  0
    1.7873   -2.3517   -1.2725 C   0  0  0  0  0  0  0  0  0  0  0  0
    2.2455    2.1992   -0.0382 H   0  0  0  0  0  0  0  0  0  0  0  0
    1.9863    0.5367    0.5262 H   0  0  0  0  0  0  0  0  0  0  0  0
    2.9336    0.8438   -0.9515 H   0  0  0  0  0  0  0  0  0  0  0  0
    1.0835    1.5092   -2.2089 H   0  0  0  0  0  0  0  0  0  0  0  0
    0.0732    1.8480   -0.8514 H   0  0  0  0  0  0  0  0  0  0  0  0
   -0.2883   -0.2575   -2.4087 H   0  0  0  0  0  0  0  0  0  0  0  0
    0.0701   -0.3620    1.1847 H   0  0  0  0  0  0  0  0  0  0  0  0
   -1.3901   -2.3549    1.2877 H   0  0  0  0  0  0  0  0  0  0  0  0
   -2.8294   -1.3453    1.1010 H   0  0  0  0  0  0  0  0  0  0  0  0
   -1.8169   -1.1968    2.5689 H   0  0  0  0  0  0  0  0  0  0  0  0
   -2.3125    1.4042    0.4458 H   0  0  0  0  0  0  0  0  0  0  0  0
   -1.9367    1.1563    2.1762 H   0  0  0  0  0  0  0  0  0  0  0  0
   -0.7575    1.8962    1.0982 H   0  0  0  0  0  0  0  0  0  0  0  0
    2.4532   -3.1731   -1.2164 H   0  0  0  0  0  0  0  0  0  0  0  0
  6 17  1  0
  6 18  1  0
  7 21  1  0
  6 19  1  0
  5  6  1  0
  5 16  1  0
  5  7  1  0
  4  5  1  0
  7 20  1  0
  7 22  1  0
  9 23  1  0
  8  9  3  0
  3 15  1  0
  3  8  1  0
  3  4  1  0
  2  3  1  0
  1 11  1  0
  2 14  1  0
  1  2  1  0
  2 13  1  0
  1 10  1  0
  1 12  1  0
M  END
$$$$

     RDKit          3D

 18 21  0  0  0  0  0  0  0  0999 V2000
    0.3121   -1.2748    2.4572 O   0  0  0  0  0  0  0  0  0  0  0  0
   -0.2388   -0.6344    1.3451 C   0  0  0  0  0  0  0  0  0  0  0  0
   -0.2795    1.1106    1.3565 C   0  0  0  0  0  0  0  0  0  0  0  0
    0.4754    1.2450   -0.1327 C   0  0  0  0  0  0  0  0  0  0  0  0
    0.4020    0.0085   -1.5295 C   0  0  0  0  0  0  0  0  0  0  0  0
   -1.0220   -0.0044   -1.7419 C   0  0  0  0  0  0  0  0  0  0  0  0
   -1.1790   -0.3800   -0.3881 N   0  0  0  0  0  0  0  0  0  0  0  0
   -0.1377   -1.4571   -0.3719 C   0  0  0  0  0  0  0  0  0  0  0  0
    0.6144   -0.1278    0.2550 C   0  0  0  0  0  0  0  0  0  0  0  0
    1.2353   -0.8386    2.6258 H   0  0  0  0  0  0  0  0  0  0  0  0
    0.2273    1.5631    2.2055 H   0  0  0  0  0  0  0  0  0  0  0  0
   -1.2432    1.6701    1.0880 H   0  0  0  0  0  0  0  0  0  0  0  0
    1.5378    1.7429   -0.1044 H   0  0  0  0  0  0  0  0  0  0  0  0
    1.1838   -0.1540   -2.2282 H   0  0  0  0  0  0  0  0  0  0  0  0
   -1.1566    0.9594   -2.1239 H   0  0  0  0  0  0  0  0  0  0  0  0
   -1.8755   -0.5074   -2.3185 H   0  0  0  0  0  0  0  0  0  0  0  0
   -0.5028   -2.3449   -0.7147 H   0  0  0  0  0  0  0  0  0  0  0  0
    1.6468   -0.5763    0.3207 H   0  0  0  0  0  0  0  0  0  0  0  0
  3 11  1  0
  3 12  1  0
  3  4  1  0
  2  3  1  0
  4 13  1  0
  4  9  1  0
  4  5  1  0
  9 18  1  0
  1  2  1  0
  1 10  1  0
  2  9  1  0
  2  8  1  0
  7  9  1  0
  5 14  1  0
  5  8  1  0
  5  6  1  0
  7  8  1  0
  8 17  1  0
  6 15  1  0
  6  7  1  0
  6 16  1  0
M  END
$$$$

     RDKit          3D

 17 19  0  0  0  0  0  0  0  0999 V2000
    1.0677   -1.0733   -2.2135 O   0  0  0  0  0  0  0  0  0  0  0  0
    0.1508   -0.6258   -1.5533 C   0  0  0  0  0  0  0  0  0  0  0  0
   -0.8810    0.1980   -1.8473 N   0  0  0  0  0  0  0  0  0  0  0  0
   -1.6123   -0.3354   -0.7221 C   0  0  0  0  0  0  0  0  0  0  0  0
   -0.3459   -0.9956   -0.2036 C   0  0  0  0  0  0  0  0  0  0  0  0
    0.9778   -0.7130    0.5823 C   0  0  0  0  0  0  0  0  0  0  0  0
    1.4618    0.6200    1.0244 C   0  0  0  0  0  0  0  0  0  0  0  0
    0.0180    0.8596    1.4628 C   0  0  0  0  0  0  0  0  0  0  0  0
   -0.2319   -0.5543    1.2422 N   0  0  0  0  0  0  0  0  0  0  0  0
   -1.0789    0.1401   -2.8276 H   0  0  0  0  0  0  0  0  0  0  0  0
   -2.3927   -1.0446   -1.0209 H   0  0  0  0  0  0  0  0  0  0  0  0
   -2.0975    0.4301   -0.1220 H   0  0  0  0  0  0  0  0  0  0  0  0
    1.6384   -1.5466    0.7915 H   0  0  0  0  0  0  0  0  0  0  0  0
    1.8056    1.2717    0.2155 H   0  0  0  0  0  0  0  0  0  0  0  0
    2.1942    0.5984    1.8277 H   0  0  0  0  0  0  0  0  0  0  0  0
   -0.5171    1.6074    0.8529 H   0  0  0  0  0  0  0  0  0  0  0  0
   -0.1570    1.1634    2.5111 H   0  0  0  0  0  0  0  0  0  0  0  0
  8 16  1  0
  8 17  1  0
  4 11  1  0
  8  9  1  0
  7  8  1  0
  5  9  1  0
  6  9  1  0
  3 10  1  0
  3  4  1  0
  2  3  1  0
  1  2  2  0
  4  5  1  0
  4 12  1  0
  2  5  1  0
  5  6  1  0
  6  7  1  0
  6 13  1  0
  7 14  1  0
  7 15  1  0
M  END
$$$$

     RDKit          3D

 16 17  0  0  0  0  0  0  0  0999 V2000
   -0.9995   -1.2098    1.3909 N   0  0  0  0  0  0  0  0  0  0  0  0
   -0.5523    0.1266    0.8741 C   0  0  0  0  0  0  0  0  0  0  0  0
   -0.8581    1.2697    1.7015 C   0  0  0  0  0  0  0  0  0  0  0  0
   -1.0992    2.2006    2.3568 N   0  0  0  0  0  0  0  0  0  0  0  0
   -0.6684    0.2832   -0.6366 C   0  0  0  0  0  0  0  0  0  0  0  0
   -0.2778   -0.8695   -1.4629 N   0  0  0  0  0  0  0  0  0  0  0  0
    1.1476   -0.7079   -1.0945 C   0  0  0  0  0  0  0  0  0  0  0  0
    0.7313    0.2070    0.0195 C   0  0  0  0  0  0  0  0  0  0  0  0
    1.4733    1.4633    0.0430 O   0  0  0  0  0  0  0  0  0  0  0  0
   -1.9946   -1.3092    1.1615 H   0  0  0  0  0  0  0  0  0  0  0  0
   -0.5553   -1.9569    0.8505 H   0  0  0  0  0  0  0  0  0  0  0  0
   -0.8337    1.2275   -1.1137 H   0  0  0  0  0  0  0  0  0  0  0  0
   -0.4875   -0.7295   -2.4439 H   0  0  0  0  0  0  0  0  0  0  0  0
    1.6560   -1.6337   -0.7619 H   0  0  0  0  0  0  0  0  0  0  0  0
    1.7743   -0.2070   -1.8382 H   0  0  0  0  0  0  0  0  0  0  0  0
    1.5441    1.8457    0.9539 H   0  0  0  0  0  0  0  0  0  0  0  0
  9 16  1  0
  3  4  3  0
  8  9  1  0
  2  3  1  0
  1  2  1  0
  1 11  1  0
  1 10  1  0
  2  8  1  0
  2  5  1  0
  7  8  1  0
  5  8  1  0
  7 15  1  0
  7 14  1  0
  6  7  1  0
  5 12  1  0
  5  6  1  0
  6 13  1  0
M  END
$$$$

     RDKit          3D

  8  8  0  0  0  0  0  0  0  0999 V2000
   -1.2504   -0.7136    1.3385 O   0  0  0  0  0  0  0  0  0  0  0  0
   -0.4774   -0.2724    0.5110 C   0  0  0  0  0  0  0  0  0  0  0  0
   -0.5596   -0.3369   -0.8565 N   0  0  0  0  0  0  0  0  0  0  0  0
    0.5149    0.2835   -1.4145 N   0  0  0  0  0  0  0  0  0  0  0  0
    1.2579    0.7283   -0.4832 N   0  0  0  0  0  0  0  0  0  0  0  0
    0.6931    0.4131    0.7137 N   0  0  0  0  0  0  0  0  0  0  0  0
   -1.2860   -0.7674   -1.4044 H   0  0  0  0  0  0  0  0  0  0  0  0
    1.1074    0.6655    1.5955 H   0  0  0  0  0  0  0  0  0  0  0  0
  1  2  2  0
  2  3  1  0
  2  6  1  0
  3  4  1  0
  3  7  1  0
  4  5  2  0
  5  6  1  0
  6  8  1  0
M  END
$$$$

     RDKit          3D

 15 15  0  0  0  0  0  0  0  0999 V2000
    2.5440    0.9005    1.5052 N   0  0  0  0  0  0  0  0  0  0  0  0
    1.6312    0.1094    0.9134 C   0  0  0  0  0  0  0  0  0  0  0  0
    1.8687   -0.6544   -0.1394 N   0  0  0  0  0  0  0  0  0  0  0  0
    0.6380   -1.0038   -0.5275 N   0  0  0  0  0  0  0  0  0  0  0  0
   -0.3026   -0.3939    0.2579 C   0  0  0  0  0  0  0  0  0  0  0  0
   -1.7476   -0.4208   -0.0434 C   0  0  0  0  0  0  0  0  0  0  0  0
   -1.9781    0.1560   -1.4214 C   0  0  0  0  0  0  0  0  0  0  0  0
   -1.4402    1.1869   -1.8277 O   0  0  0  0  0  0  0  0  0  0  0  0
    0.3164    0.2861    1.1978 N   0  0  0  0  0  0  0  0  0  0  0  0
    2.1209    1.5318    2.1754 H   0  0  0  0  0  0  0  0  0  0  0  0
    3.0074    1.4563    0.7751 H   0  0  0  0  0  0  0  0  0  0  0  0
    0.5388   -1.4504   -1.4184 H   0  0  0  0  0  0  0  0  0  0  0  0
   -2.1711   -1.4642   -0.0327 H   0  0  0  0  0  0  0  0  0  0  0  0
   -2.3448    0.1720    0.6611 H   0  0  0  0  0  0  0  0  0  0  0  0
   -2.6807   -0.4113   -2.0753 H   0  0  0  0  0  0  0  0  0  0  0  0
  7  8  2  0
  7 15  1  0
  6  7  1  0
  4 12  1  0
  3  4  1  0
  2  3  2  0
  4  5  1  0
  1  2  1  0
  1 11  1  0
  1 10  1  0
  2  9  1  0
  5  6  1  0
  5  9  2  0
  6 14  1  0
  6 13  1  0
M  END
$$$$

     RDKit          3D

 17 17  0  0  0  0  0  0  0  0999 V2000
   -1.5484    0.5280    0.6879 N   0  0  0  0  0  0  0  0  0  0  0  0
   -1.4371    1.5168    0.9238 H   0  0  0  0  0  0  0  0  0  0  0  0
    2.5742    1.5069    1.6949 H   0  0  0  0  0  0  0  0  0  0  0  0
   -2.5592    0.3606    0.7198 H   0  0  0  0  0  0  0  0  0  0  0  0
   -0.9387    0.1906   -0.5992 C   0  0  0  0  0  0  0  0  0  0  0  0
   -0.8740   -1.3509   -0.7046 C   0  0  0  0  0  0  0  0  0  0  0  0
    0.5114   -1.2854   -0.0259 C   0  0  0  0  0  0  0  0  0  0  0  0
    0.6138    0.1916   -0.4965 C   0  0  0  0  0  0  0  0  0  0  0  0
    1.3061    1.2290    0.3974 C   0  0  0  0  0  0  0  0  0  0  0  0
    1.0441    2.4239    0.5012 O   0  0  0  0  0  0  0  0  0  0  0  0
    2.3203    0.7330    1.1555 O   0  0  0  0  0  0  0  0  0  0  0  0
   -1.3702    0.7291   -1.4505 H   0  0  0  0  0  0  0  0  0  0  0  0
   -0.8147   -1.7027   -1.7445 H   0  0  0  0  0  0  0  0  0  0  0  0
   -1.6402   -1.9376   -0.1896 H   0  0  0  0  0  0  0  0  0  0  0  0
    1.2716   -1.9623   -0.4338 H   0  0  0  0  0  0  0  0  0  0  0  0
    0.4793   -1.4167    1.0647 H   0  0  0  0  0  0  0  0  0  0  0  0
    1.0617    0.2462   -1.5007 H   0  0  0  0  0  0  0  0  0  0  0  0
  1  2  1  0
  1  4  1  0
  1  5  1  0
  3 11  1  0
  6 14  1  0
  5  6  1  0
  5 12  1  0
  5  8  1  0
  6 13  1  0
  9 11  1  0
  6  7  1  0
  8  9  1  0
  9 10  2  0
  7  8  1  0
  8 17  1  0
  7 16  1  0
  7 15  1  0
M  END
$$$$

     RDKit          3D

 21 22  0  0  0  0  0  0  0  0999 V2000
   -2.4680    0.8584    0.9086 C   0  0  0  0  0  0  0  0  0  0  0  0
   -1.1375    1.3839    0.3165 C   0  0  0  0  0  0  0  0  0  0  0  0
   -0.5841   -0.0301    0.3827 C   0  0  0  0  0  0  0  0  0  0  0  0
   -1.7752   -0.5805    1.1911 C   0  0  0  0  0  0  0  0  0  0  0  0
    0.6763   -0.4534    0.1042 C   0  0  0  0  0  0  0  0  0  0  0  0
    1.6606    0.4972   -0.4385 C   0  0  0  0  0  0  0  0  0  0  0  0
    1.7616   -0.1839   -1.7409 C   0  0  0  0  0  0  0  0  0  0  0  0
    2.0130   -1.5443   -1.3934 O   0  0  0  0  0  0  0  0  0  0  0  0
    1.4317   -1.7298   -0.0294 C   0  0  0  0  0  0  0  0  0  0  0  0
   -3.3055    0.6807    0.1468 H   0  0  0  0  0  0  0  0  0  0  0  0
   -2.8128    1.4525    1.7648 H   0  0  0  0  0  0  0  0  0  0  0  0
   -1.2211    2.0225   -0.6093 H   0  0  0  0  0  0  0  0  0  0  0  0
   -0.3604    2.1411    0.9137 H   0  0  0  0  0  0  0  0  0  0  0  0
   -1.6586   -0.6694    2.3059 H   0  0  0  0  0  0  0  0  0  0  0  0
   -2.3882   -1.4637    0.7857 H   0  0  0  0  0  0  0  0  0  0  0  0
    1.2390    1.4710   -0.5316 H   0  0  0  0  0  0  0  0  0  0  0  0
    2.6683    0.5128   -0.0454 H   0  0  0  0  0  0  0  0  0  0  0  0
    2.4455    0.2620   -2.4763 H   0  0  0  0  0  0  0  0  0  0  0  0
    0.6796   -0.1401   -2.3165 H   0  0  0  0  0  0  0  0  0  0  0  0
    0.8622   -2.6714    0.0183 H   0  0  0  0  0  0  0  0  0  0  0  0
    2.2737   -1.8154    0.7431 H   0  0  0  0  0  0  0  0  0  0  0  0
  1 11  1  0
  1 10  1  0
  1  4  1  0
  1  2  1  0
  4 15  1  0
  2 12  1  0
  3  4  1  0
  4 14  1  0
  2  3  1  0
  2 13  1  0
  3  5  2  3
  9 20  1  0
  6 17  1  0
  7 19  1  0
  5  6  1  0
  5  9  1  0
  6  7  1  0
  6 16  1  0
  9 21  1  0
  8  9  1  0
  7  8  1  0
  7 18  1  0
M  END
$$$$

     RDKit          3D

 18 19  0  0  0  0  0  0  0  0999 V2000
   -3.5499    0.0856    0.7044 N   0  0  0  0  0  0  0  0  0  0  0  0
   -2.3116   -0.1584   -0.0080 C   0  0  0  0  0  0  0  0  0  0  0  0
   -1.2621   -0.4971    0.8783 O   0  0  0  0  0  0  0  0  0  0  0  0
   -0.1011    0.3575    0.7877 C   0  0  0  0  0  0  0  0  0  0  0  0
    0.4892    0.7091   -0.6636 C   0  0  0  0  0  0  0  0  0  0  0  0
    1.8062    0.9917    0.1783 C   0  0  0  0  0  0  0  0  0  0  0  0
    1.3193   -0.3834    0.8065 C   0  0  0  0  0  0  0  0  0  0  0  0
    1.2958   -1.3332   -0.3534 C   0  0  0  0  0  0  0  0  0  0  0  0
    0.7448   -0.6016   -1.3333 C   0  0  0  0  0  0  0  0  0  0  0  0
   -4.2898    0.2158    0.0162 H   0  0  0  0  0  0  0  0  0  0  0  0
   -2.4332   -0.9727   -0.7295 H   0  0  0  0  0  0  0  0  0  0  0  0
   -0.2036    1.2062    1.4756 H   0  0  0  0  0  0  0  0  0  0  0  0
    0.0553    1.5175   -1.2515 H   0  0  0  0  0  0  0  0  0  0  0  0
    2.7511    0.9684   -0.3749 H   0  0  0  0  0  0  0  0  0  0  0  0
    1.8028    1.8639    0.8391 H   0  0  0  0  0  0  0  0  0  0  0  0
    1.7430   -0.7225    1.7492 H   0  0  0  0  0  0  0  0  0  0  0  0
    1.6249   -2.3593   -0.3723 H   0  0  0  0  0  0  0  0  0  0  0  0
    0.5189   -0.8876   -2.3489 H   0  0  0  0  0  0  0  0  0  0  0  0
  7 16  1  0
  8 17  1  0
  7  8  1  0
  4  7  1  0
  6  7  1  0
  8  9  2  0
  4 12  1  0
  3  4  1  0
  2  3  1  0
  4  5  1  0
  1  2  1  0
  2 11  1  0
  1 10  1  0
  6 15  1  0
  6 14  1  0
  5  6  1  0
  5  9  1  0
  9 18  1  0
  5 13  1  0
M  END
$$$$

     RDKit          3D

 21 21  0  0  0  0  0  0  0  0999 V2000
    0.8120    2.3535    0.9686 C   0  0  0  0  0  0  0  0  0  0  0  0
    0.6391    1.3795   -0.1915 C   0  0  0  0  0  0  0  0  0  0  0  0
   -0.4023    0.2928    0.0971 C   0  0  0  0  0  0  0  0  0  0  0  0
   -0.0826   -0.5238    1.3565 C   0  0  0  0  0  0  0  0  0  0  0  0
   -0.6730   -1.9189    1.1150 C   0  0  0  0  0  0  0  0  0  0  0  0
   -0.6809   -1.9960   -0.3765 C   0  0  0  0  0  0  0  0  0  0  0  0
   -0.5158   -0.7920   -0.9434 C   0  0  0  0  0  0  0  0  0  0  0  0
   -0.3689   -0.6190   -2.3378 C   0  0  0  0  0  0  0  0  0  0  0  0
   -0.1025   -0.6157   -3.5150 C   0  0  0  0  0  0  0  0  0  0  0  0
    1.2257    1.8535    1.8513 H   0  0  0  0  0  0  0  0  0  0  0  0
   -0.1384    2.8061    1.2460 H   0  0  0  0  0  0  0  0  0  0  0  0
    1.4933    3.1643    0.6911 H   0  0  0  0  0  0  0  0  0  0  0  0
    0.3297    1.9377   -1.0797 H   0  0  0  0  0  0  0  0  0  0  0  0
    1.6191    0.9399   -0.4100 H   0  0  0  0  0  0  0  0  0  0  0  0
   -1.3905    0.7697    0.2037 H   0  0  0  0  0  0  0  0  0  0  0  0
   -0.4846   -0.0755    2.2642 H   0  0  0  0  0  0  0  0  0  0  0  0
    1.0040   -0.6187    1.4786 H   0  0  0  0  0  0  0  0  0  0  0  0
   -0.0473   -2.6997    1.5494 H   0  0  0  0  0  0  0  0  0  0  0  0
   -1.6813   -2.0111    1.5057 H   0  0  0  0  0  0  0  0  0  0  0  0
   -0.7730   -2.9260   -0.9322 H   0  0  0  0  0  0  0  0  0  0  0  0
    0.2183   -0.7005   -4.5412 H   0  0  0  0  0  0  0  0  0  0  0  0
  6 20  1  0
  5 18  1  0
  5  6  1  0
  6  7  2  0
  5 19  1  0
  4  5  1  0
  9 21  1  0
  8  9  3  0
  7  8  1  0
  3  7  1  0
  3  4  1  0
  4 16  1  0
  4 17  1  0
  3 15  1  0
  2  3  1  0
  2 14  1  0
  2 13  1  0
  1  2  1  0
  1 11  1  0
  1 10  1  0
  1 12  1  0
M  END
$$$$

     RDKit          3D

 13 13  0  0  0  0  0  0  0  0999 V2000
    1.9771   -2.1076   -2.0215 O   0  0  0  0  0  0  0  0  0  0  0  0
    1.2937   -1.1757   -1.6147 C   0  0  0  0  0  0  0  0  0  0  0  0
    1.3928    0.1125   -2.1277 O   0  0  0  0  0  0  0  0  0  0  0  0
    0.4569    0.7658   -1.3773 C   0  0  0  0  0  0  0  0  0  0  0  0
   -0.1337   -0.0235   -0.5112 C   0  0  0  0  0  0  0  0  0  0  0  0
   -1.2131    0.2756    0.4699 C   0  0  0  0  0  0  0  0  0  0  0  0
   -0.6751    0.2857    1.8369 C   0  0  0  0  0  0  0  0  0  0  0  0
   -0.2399    0.2958    2.9562 C   0  0  0  0  0  0  0  0  0  0  0  0
    0.3464   -1.3159   -0.6098 O   0  0  0  0  0  0  0  0  0  0  0  0
    0.3206    1.8133   -1.5758 H   0  0  0  0  0  0  0  0  0  0  0  0
   -1.6693    1.2479    0.2478 H   0  0  0  0  0  0  0  0  0  0  0  0
   -2.0079   -0.4737    0.3800 H   0  0  0  0  0  0  0  0  0  0  0  0
    0.1515    0.2999    3.9472 H   0  0  0  0  0  0  0  0  0  0  0  0
  1  2  2  0
  6 12  1  0
  2  9  1  0
  5  9  1  0
  2  3  1  0
  5  6  1  0
  4  5  2  0
  6 11  1  0
  6  7  1  0
  3  4  1  0
  4 10  1  0
  7  8  3  0
  8 13  1  0
M  END
$$$$

     RDKit          3D

 17 18  0  0  0  0  0  0  0  0999 V2000
    0.3870    1.0442    2.6430 O   0  0  0  0  0  0  0  0  0  0  0  0
    0.5728   -0.2642    2.1158 C   0  0  0  0  0  0  0  0  0  0  0  0
    0.4959   -0.2652    0.6358 C   0  0  0  0  0  0  0  0  0  0  0  0
   -0.4295   -1.1048   -0.1486 C   0  0  0  0  0  0  0  0  0  0  0  0
   -0.8284    0.1629   -0.9603 C   0  0  0  0  0  0  0  0  0  0  0  0
   -0.5890    0.1005   -2.3873 C   0  0  0  0  0  0  0  0  0  0  0  0
   -0.4013    0.0466   -3.5729 C   0  0  0  0  0  0  0  0  0  0  0  0
    0.1950    0.9354   -0.2117 C   0  0  0  0  0  0  0  0  0  0  0  0
    1.5185    0.4168   -0.0852 O   0  0  0  0  0  0  0  0  0  0  0  0
    1.1677    1.5701    2.3745 H   0  0  0  0  0  0  0  0  0  0  0  0
   -0.2000   -0.9141    2.5479 H   0  0  0  0  0  0  0  0  0  0  0  0
    1.5450   -0.6380    2.4517 H   0  0  0  0  0  0  0  0  0  0  0  0
   -1.2634   -1.5434    0.4102 H   0  0  0  0  0  0  0  0  0  0  0  0
    0.0589   -1.9048   -0.7158 H   0  0  0  0  0  0  0  0  0  0  0  0
   -1.8477    0.5042   -0.7227 H   0  0  0  0  0  0  0  0  0  0  0  0
   -0.2360    0.0035   -4.6236 H   0  0  0  0  0  0  0  0  0  0  0  0
   -0.1455    1.8503    0.2492 H   0  0  0  0  0  0  0  0  0  0  0  0
  1 10  1  0
  8  9  1  0
  3  9  1  0
  2 11  1  0
  8 17  1  0
  1  2  1  0
  3  8  1  0
  5  8  1  0
  2  3  1  0
  2 12  1  0
  7 16  1  0
  3  4  1  0
  6  7  3  0
  5  6  1  0
  4  5  1  0
  5 15  1  0
  4 14  1  0
  4 13  1  0
M  END
$$$$

     RDKit          3D

 21 24  0  0  0  0  0  0  0  0999 V2000
    1.4489    2.0624   -0.6073 C   0  0  0  0  0  0  0  0  0  0  0  0
    0.0528    1.6867   -0.2375 C   0  0  0  0  0  0  0  0  0  0  0  0
   -0.3083    1.4853    1.2359 C   0  0  0  0  0  0  0  0  0  0  0  0
   -0.2521    0.3199    0.3025 C   0  0  0  0  0  0  0  0  0  0  0  0
   -1.3261   -0.5816   -0.1202 C   0  0  0  0  0  0  0  0  0  0  0  0
   -0.6537   -1.5981    0.8909 C   0  0  0  0  0  0  0  0  0  0  0  0
   -0.5486   -2.5735   -0.3230 C   0  0  0  0  0  0  0  0  0  0  0  0
   -0.1879   -1.2312   -0.9938 C   0  0  0  0  0  0  0  0  0  0  0  0
    0.6199   -0.8464    0.3144 C   0  0  0  0  0  0  0  0  0  0  0  0
    1.6850    1.7140   -1.6254 H   0  0  0  0  0  0  0  0  0  0  0  0
    1.5545    3.1460   -0.6228 H   0  0  0  0  0  0  0  0  0  0  0  0
    2.1841    1.6606    0.0912 H   0  0  0  0  0  0  0  0  0  0  0  0
   -0.6653    2.1228   -0.9271 H   0  0  0  0  0  0  0  0  0  0  0  0
   -1.2768    1.8568    1.5537 H   0  0  0  0  0  0  0  0  0  0  0  0
    0.4725    1.6218    1.9573 H   0  0  0  0  0  0  0  0  0  0  0  0
   -2.3803   -0.5235   -0.3892 H   0  0  0  0  0  0  0  0  0  0  0  0
   -0.9210   -1.7922    1.9108 H   0  0  0  0  0  0  0  0  0  0  0  0
    0.2451   -3.3254   -0.2957 H   0  0  0  0  0  0  0  0  0  0  0  0
   -1.4739   -3.0490   -0.6371 H   0  0  0  0  0  0  0  0  0  0  0  0
    0.0947   -1.0199   -2.0056 H   0  0  0  0  0  0  0  0  0  0  0  0
    1.6364   -1.1354    0.5283 H   0  0  0  0  0  0  0  0  0  0  0  0
  1 11  1  0
  3 14  1  0
  2 13  1  0
  3 15  1  0
  2  3  1  0
  3  4  1  0
  1  2  1  0
  1 10  1  0
  1 12  1  0
  2  4  1  0
  4  9  1  0
  4  5  1  0
  9 21  1  0
  8  9  1  0
  6  9  1  0
  5 16  1  0
  5  8  1  0
  5  6  1  0
  8 20  1  0
  7  8  1  0
  6 17  1  0
  6  7  1  0
  7 19  1  0
  7 18  1  0
M  END
$$$$

     RDKit          3D

 18 19  0  0  0  0  0  0  0  0999 V2000
   -1.2066    0.7175   -1.4138 C   0  0  0  0  0  0  0  0  0  0  0  0
    0.0344    1.0109   -0.5760 C   0  0  0  0  0  0  0  0  0  0  0  0
   -0.3107    1.0627    0.8354 N   0  0  0  0  0  0  0  0  0  0  0  0
   -0.3793   -0.0206    1.6660 C   0  0  0  0  0  0  0  0  0  0  0  0
   -0.9408    0.0788    2.7557 O   0  0  0  0  0  0  0  0  0  0  0  0
    0.2277   -1.3251    1.1895 C   0  0  0  0  0  0  0  0  0  0  0  0
    1.1840   -1.2050    0.0482 C   0  0  0  0  0  0  0  0  0  0  0  0
    2.1339   -0.1333    0.1500 O   0  0  0  0  0  0  0  0  0  0  0  0
    1.1027   -0.0066   -0.8452 C   0  0  0  0  0  0  0  0  0  0  0  0
   -0.9684    0.7230   -2.4824 H   0  0  0  0  0  0  0  0  0  0  0  0
   -1.9846    1.4678   -1.2324 H   0  0  0  0  0  0  0  0  0  0  0  0
   -1.6289   -0.2653   -1.1730 H   0  0  0  0  0  0  0  0  0  0  0  0
    0.4159    2.0048   -0.8383 H   0  0  0  0  0  0  0  0  0  0  0  0
   -0.7578    1.8937    1.2008 H   0  0  0  0  0  0  0  0  0  0  0  0
    0.7456   -1.7901    2.0383 H   0  0  0  0  0  0  0  0  0  0  0  0
   -0.5997   -1.9817    0.8975 H   0  0  0  0  0  0  0  0  0  0  0  0
    1.5328   -2.1520   -0.3385 H   0  0  0  0  0  0  0  0  0  0  0  0
    1.3997   -0.0795   -1.8818 H   0  0  0  0  0  0  0  0  0  0  0  0
  4  5  2  0
  3 14  1  0
  3  4  1  0
  4  6  1  0
  2  3  1  0
  1 11  1  0
  6 16  1  0
  6 15  1  0
  6  7  1  0
  1 10  1  0
  1  2  1  0
  1 12  1  0
  2 13  1  0
  2  9  1  0
  7  9  1  0
  7  8  1  0
  7 17  1  0
  8  9  1  0
  9 18  1  0
M  END
$$$$

     RDKit          3D

 16 17  0  0  0  0  0  0  0  0999 V2000
   -0.8805    1.2716    2.4916 O   0  0  0  0  0  0  0  0  0  0  0  0
   -1.3587    0.4653    1.7006 C   0  0  0  0  0  0  0  0  0  0  0  0
   -0.7099    0.1537    0.3851 C   0  0  0  0  0  0  0  0  0  0  0  0
   -0.7112   -1.2789   -0.1315 C   0  0  0  0  0  0  0  0  0  0  0  0
    0.5542   -0.6424    0.3970 C   0  0  0  0  0  0  0  0  0  0  0  0
    1.6448   -0.0935   -0.4458 C   0  0  0  0  0  0  0  0  0  0  0  0
    1.1585    0.5405   -1.6483 O   0  0  0  0  0  0  0  0  0  0  0  0
    0.0284    1.2748   -1.5674 C   0  0  0  0  0  0  0  0  0  0  0  0
   -0.8852    1.1664   -0.6672 N   0  0  0  0  0  0  0  0  0  0  0  0
   -2.3035   -0.0750    1.9368 H   0  0  0  0  0  0  0  0  0  0  0  0
   -0.7957   -1.4512   -1.1963 H   0  0  0  0  0  0  0  0  0  0  0  0
   -1.1737   -2.0332    0.4830 H   0  0  0  0  0  0  0  0  0  0  0  0
    0.9337   -0.9962    1.3576 H   0  0  0  0  0  0  0  0  0  0  0  0
    2.2176    0.6513    0.1104 H   0  0  0  0  0  0  0  0  0  0  0  0
    2.3317   -0.9034   -0.7560 H   0  0  0  0  0  0  0  0  0  0  0  0
   -0.0503    1.9501   -2.4497 H   0  0  0  0  0  0  0  0  0  0  0  0
  6 14  1  0
  6 15  1  0
  5 13  1  0
  5  6  1  0
  6  7  1  0
  3  5  1  0
  4  5  1  0
  7  8  1  0
  1  2  2  0
  2  3  1  0
  3  4  1  0
  3  9  1  0
  8 16  1  0
  8  9  2  0
  2 10  1  0
  4 11  1  0
  4 12  1  0
M  END
$$$$

     RDKit          3D

 19 19  0  0  0  0  0  0  0  0999 V2000
   -0.0402    1.5591    1.6972 C   0  0  0  0  0  0  0  0  0  0  0  0
   -0.6114    1.7838    0.2982 C   0  0  0  0  0  0  0  0  0  0  0  0
   -0.3874    0.5938   -0.6469 C   0  0  0  0  0  0  0  0  0  0  0  0
   -1.2673   -0.4839   -0.2968 O   0  0  0  0  0  0  0  0  0  0  0  0
   -0.6013   -1.6324    0.2256 C   0  0  0  0  0  0  0  0  0  0  0  0
    0.5101   -2.0878   -0.7029 C   0  0  0  0  0  0  0  0  0  0  0  0
    0.8258   -3.2721   -0.8456 O   0  0  0  0  0  0  0  0  0  0  0  0
    1.2013   -0.9552   -1.4286 C   0  0  0  0  0  0  0  0  0  0  0  0
    0.9967    0.2420   -0.6810 O   0  0  0  0  0  0  0  0  0  0  0  0
    1.0532    1.4622    1.6561 H   0  0  0  0  0  0  0  0  0  0  0  0
   -0.4553    0.6578    2.1703 H   0  0  0  0  0  0  0  0  0  0  0  0
   -0.2841    2.4087    2.3404 H   0  0  0  0  0  0  0  0  0  0  0  0
   -0.1346    2.6788   -0.1297 H   0  0  0  0  0  0  0  0  0  0  0  0
   -1.6910    1.9826    0.3850 H   0  0  0  0  0  0  0  0  0  0  0  0
   -0.6733    0.9198   -1.6593 H   0  0  0  0  0  0  0  0  0  0  0  0
   -1.3425   -2.4330    0.3159 H   0  0  0  0  0  0  0  0  0  0  0  0
   -0.1758   -1.4260    1.2160 H   0  0  0  0  0  0  0  0  0  0  0  0
    2.2750   -1.1516   -1.4756 H   0  0  0  0  0  0  0  0  0  0  0  0
    0.8022   -0.8467   -2.4383 H   0  0  0  0  0  0  0  0  0  0  0  0
  1 11  1  0
  2 14  1  0
  2 13  1  0
  1  2  1  0
  1 10  1  0
  1 12  1  0
  2  3  1  0
  3  9  1  0
  8  9  1  0
  3 15  1  0
  3  4  1  0
  8 18  1  0
  8 19  1  0
  6  8  1  0
  4  5  1  0
  5  6  1  0
  6  7  2  0
  5 16  1  0
  5 17  1  0
M  END
$$$$

     RDKit          3D

 17 19  0  0  0  0  0  0  0  0999 V2000
   -1.8252    1.7347   -0.9869 O   0  0  0  0  0  0  0  0  0  0  0  0
   -0.9058    1.1538   -0.4351 C   0  0  0  0  0  0  0  0  0  0  0  0
    0.4848    0.8813   -0.7536 C   0  0  0  0  0  0  0  0  0  0  0  0
    1.5147   -0.1782   -1.2799 C   0  0  0  0  0  0  0  0  0  0  0  0
    0.2576   -0.1615   -1.8685 N   0  0  0  0  0  0  0  0  0  0  0  0
    0.6762    0.8761    0.7701 C   0  0  0  0  0  0  0  0  0  0  0  0
   -0.7752    0.5385    0.8701 C   0  0  0  0  0  0  0  0  0  0  0  0
   -0.6622   -1.0510    1.2844 C   0  0  0  0  0  0  0  0  0  0  0  0
   -1.8812   -0.4285    1.0701 N   0  0  0  0  0  0  0  0  0  0  0  0
    2.3602    0.2062   -1.8402 H   0  0  0  0  0  0  0  0  0  0  0  0
    1.7460   -1.0407   -0.6672 H   0  0  0  0  0  0  0  0  0  0  0  0
   -0.3715   -0.9072   -1.5532 H   0  0  0  0  0  0  0  0  0  0  0  0
    0.9229    1.8860    1.1363 H   0  0  0  0  0  0  0  0  0  0  0  0
    1.4408    0.2171    1.2090 H   0  0  0  0  0  0  0  0  0  0  0  0
   -0.2538   -1.7588    0.5556 H   0  0  0  0  0  0  0  0  0  0  0  0
   -0.3998   -1.2593    2.3190 H   0  0  0  0  0  0  0  0  0  0  0  0
   -2.3284   -0.7084    0.1700 H   0  0  0  0  0  0  0  0  0  0  0  0
  4 11  1  0
  9 17  1  0
  4 10  1  0
  7  9  1  0
  8  9  1  0
  3  4  1  0
  4  5  1  0
  1  2  2  0
  6 13  1  0
  2  3  1  0
  2  7  1  0
  3  6  1  0
  3  5  1  0
  6  7  1  0
  7  8  1  0
  6 14  1  0
  8 16  1  0
  8 15  1  0
  5 12  1  0
M  END
$$$$

     RDKit          3D

 18 21  0  0  0  0  0  0  0  0999 V2000
    1.3873   -1.2135   -0.2541 C   0  0  0  0  0  0  0  0  0  0  0  0
   -0.0624   -1.1473   -0.8547 C   0  0  0  0  0  0  0  0  0  0  0  0
   -1.1880   -0.7447    0.3646 C   0  0  0  0  0  0  0  0  0  0  0  0
   -0.4081    0.4993    1.4512 C   0  0  0  0  0  0  0  0  0  0  0  0
   -1.2626    1.5731    0.8208 C   0  0  0  0  0  0  0  0  0  0  0  0
   -0.5972    1.3531   -0.5892 C   0  0  0  0  0  0  0  0  0  0  0  0
   -1.7886    0.5620   -0.2016 N   0  0  0  0  0  0  0  0  0  0  0  0
    0.6501    1.0934    0.3346 C   0  0  0  0  0  0  0  0  0  0  0  0
    1.8617    0.1678    0.2089 C   0  0  0  0  0  0  0  0  0  0  0  0
    1.5122   -2.0262    0.4267 H   0  0  0  0  0  0  0  0  0  0  0  0
    2.1823   -1.7572   -0.7615 H   0  0  0  0  0  0  0  0  0  0  0  0
   -0.3476   -0.6302   -1.8387 H   0  0  0  0  0  0  0  0  0  0  0  0
   -0.3388   -2.1877   -1.3060 H   0  0  0  0  0  0  0  0  0  0  0  0
   -2.1005   -1.4985    0.2291 H   0  0  0  0  0  0  0  0  0  0  0  0
    0.2683    0.5487    2.4038 H   0  0  0  0  0  0  0  0  0  0  0  0
   -1.6393    2.5349    1.1114 H   0  0  0  0  0  0  0  0  0  0  0  0
   -0.8327    2.2216   -1.2616 H   0  0  0  0  0  0  0  0  0  0  0  0
    2.7039    0.6514   -0.2837 H   0  0  0  0  0  0  0  0  0  0  0  0
  5 16  1  0
  4 15  1  0
  4  5  1  0
  5  7  1  0
  5  6  1  0
  3  4  1  0
  4  8  1  0
  3 14  1  0
  3  7  1  0
  2  3  1  0
  1 11  1  0
  6  8  1  0
  8  9  1  0
  6  7  1  0
  6 17  1  0
  2 12  1  0
  1  2  1  0
  2 13  1  0
  1  9  1  0
  1 10  1  0
  9 18  1  0
M  END
$$$$

     RDKit          3D

 16 17  0  0  0  0  0  0  0  0999 V2000
    2.3593   -0.0672   -1.8572 O   0  0  0  0  0  0  0  0  0  0  0  0
    1.5914    0.4312   -1.0670 C   0  0  0  0  0  0  0  0  0  0  0  0
    0.7288    1.4660   -1.2757 O   0  0  0  0  0  0  0  0  0  0  0  0
    0.1173    1.3212    0.0438 C   0  0  0  0  0  0  0  0  0  0  0  0
   -1.3009    0.8792   -0.0116 C   0  0  0  0  0  0  0  0  0  0  0  0
   -1.5637   -0.4345   -0.0541 C   0  0  0  0  0  0  0  0  0  0  0  0
   -0.4917   -1.4730    0.0531 C   0  0  0  0  0  0  0  0  0  0  0  0
    0.6245   -1.0205    0.8840 N   0  0  0  0  0  0  0  0  0  0  0  0
    1.1897    0.2751    0.4288 C   0  0  0  0  0  0  0  0  0  0  0  0
    0.2118    2.2580    0.6068 H   0  0  0  0  0  0  0  0  0  0  0  0
   -2.0844    1.6236   -0.0984 H   0  0  0  0  0  0  0  0  0  0  0  0
   -2.5865   -0.7793   -0.1808 H   0  0  0  0  0  0  0  0  0  0  0  0
   -0.1518   -1.7729   -0.9444 H   0  0  0  0  0  0  0  0  0  0  0  0
   -0.9141   -2.3701    0.5199 H   0  0  0  0  0  0  0  0  0  0  0  0
    0.3043   -0.9928    1.8513 H   0  0  0  0  0  0  0  0  0  0  0  0
    1.9660    0.6559    1.1015 H   0  0  0  0  0  0  0  0  0  0  0  0
  4 10  1  0
  9 16  1  0
  3  4  1  0
  4  9  1  0
  4  5  1  0
  2  3  1  0
  5 11  1  0
  2  9  1  0
  8  9  1  0
  1  2  2  0
  5  6  2  0
  7 13  1  0
  6  7  1  0
  6 12  1  0
  7  8  1  0
  8 15  1  0
  7 14  1  0
M  END
$$$$

     RDKit          3D

 14 14  0  0  0  0  0  0  0  0999 V2000
   -2.4214   -1.4106    0.6603 O   0  0  0  0  0  0  0  0  0  0  0  0
   -1.3223   -0.8858    0.4713 C   0  0  0  0  0  0  0  0  0  0  0  0
   -0.4332   -1.3788   -0.4553 N   0  0  0  0  0  0  0  0  0  0  0  0
    0.8837   -1.1729   -0.4164 C   0  0  0  0  0  0  0  0  0  0  0  0
    1.4471    0.0475   -0.3578 C   0  0  0  0  0  0  0  0  0  0  0  0
    0.6945    1.3157   -0.2989 C   0  0  0  0  0  0  0  0  0  0  0  0
    1.2338    2.3525   -0.7384 O   0  0  0  0  0  0  0  0  0  0  0  0
   -0.5820    1.3615    0.4927 C   0  0  0  0  0  0  0  0  0  0  0  0
   -0.8791    0.1558    1.2235 O   0  0  0  0  0  0  0  0  0  0  0  0
   -0.7218   -2.3476   -0.6936 H   0  0  0  0  0  0  0  0  0  0  0  0
    1.5319   -2.0349   -0.6155 H   0  0  0  0  0  0  0  0  0  0  0  0
    2.5145    0.1935   -0.5224 H   0  0  0  0  0  0  0  0  0  0  0  0
   -1.5362    1.6401   -0.0153 H   0  0  0  0  0  0  0  0  0  0  0  0
   -0.4095    2.1639    1.2660 H   0  0  0  0  0  0  0  0  0  0  0  0
  8 13  1  0
  8 14  1  0
  6  8  1  0
  8  9  1  0
  6  7  2  0
  5  6  1  0
  5 12  1  0
  4  5  2  0
  3  4  1  0
  3 10  1  0
  2  3  1  0
  2  9  1  0
  4 11  1  0
  1  2  2  0
M  END
$$$$

     RDKit          3D

 18 19  0  0  0  0  0  0  0  0999 V2000
   -0.2092   -1.4471    1.2925 N   0  0  0  0  0  0  0  0  0  0  0  0
    0.6491   -0.6547    0.4105 C   0  0  0  0  0  0  0  0  0  0  0  0
    0.8186    0.8082    0.8930 C   0  0  0  0  0  0  0  0  0  0  0  0
    0.8421    1.1581   -0.6360 C   0  0  0  0  0  0  0  0  0  0  0  0
   -0.0176   -0.0298   -0.7501 C   0  0  0  0  0  0  0  0  0  0  0  0
   -1.4107   -0.0615   -1.2010 C   0  0  0  0  0  0  0  0  0  0  0  0
   -0.3411   -0.7010   -1.9972 N   0  0  0  0  0  0  0  0  0  0  0  0
   -0.2664    1.4673    1.5981 C   0  0  0  0  0  0  0  0  0  0  0  0
   -1.1128    2.1233    2.0669 N   0  0  0  0  0  0  0  0  0  0  0  0
    0.2418   -1.7096    2.1728 H   0  0  0  0  0  0  0  0  0  0  0  0
   -0.4454   -2.3568    0.8538 H   0  0  0  0  0  0  0  0  0  0  0  0
    1.5875   -1.1691    0.1309 H   0  0  0  0  0  0  0  0  0  0  0  0
    1.7746    0.9738    1.4000 H   0  0  0  0  0  0  0  0  0  0  0  0
    0.4250    2.1150   -0.9185 H   0  0  0  0  0  0  0  0  0  0  0  0
    1.8322    1.0673   -1.1090 H   0  0  0  0  0  0  0  0  0  0  0  0
   -1.8404    0.8580   -1.6092 H   0  0  0  0  0  0  0  0  0  0  0  0
   -2.1089   -0.7301   -0.7094 H   0  0  0  0  0  0  0  0  0  0  0  0
   -0.4184   -1.7111   -1.8881 H   0  0  0  0  0  0  0  0  0  0  0  0
  7 18  1  0
  1 10  1  0
  6  7  1  0
  5  7  1  0
  6 17  1  0
  2 12  1  0
  5  6  1  0
  6 16  1  0
  1 11  1  0
  1  2  1  0
  2  5  1  0
  2  3  1  0
  4  5  1  0
  4 14  1  0
  3  4  1  0
  4 15  1  0
  3  8  1  0
  3 13  1  0
  8  9  3  0
M  END
$$$$

     RDKit          3D

 16 16  0  0  0  0  0  0  0  0999 V2000
    1.0841   -1.7292   -1.4696 O   0  0  0  0  0  0  0  0  0  0  0  0
    1.0076   -0.5942   -1.9331 C   0  0  0  0  0  0  0  0  0  0  0  0
    1.1550    0.6662   -1.1220 C   0  0  0  0  0  0  0  0  0  0  0  0
    1.0492    0.4091    0.3761 C   0  0  0  0  0  0  0  0  0  0  0  0
   -0.3432    0.1170    0.8134 C   0  0  0  0  0  0  0  0  0  0  0  0
   -1.2291    1.1045    1.0189 N   0  0  0  0  0  0  0  0  0  0  0  0
   -2.3149    0.4101    1.4057 N   0  0  0  0  0  0  0  0  0  0  0  0
   -2.2264   -0.9311    1.4479 N   0  0  0  0  0  0  0  0  0  0  0  0
   -0.9621   -1.1251    1.0653 C   0  0  0  0  0  0  0  0  0  0  0  0
    0.8738   -0.4412   -3.0124 H   0  0  0  0  0  0  0  0  0  0  0  0
    2.1396    1.0878   -1.3629 H   0  0  0  0  0  0  0  0  0  0  0  0
    0.3955    1.3787   -1.4622 H   0  0  0  0  0  0  0  0  0  0  0  0
    1.7120   -0.4093    0.6790 H   0  0  0  0  0  0  0  0  0  0  0  0
    1.3998    1.2999    0.9125 H   0  0  0  0  0  0  0  0  0  0  0  0
   -3.1789    0.8856    1.6551 H   0  0  0  0  0  0  0  0  0  0  0  0
   -0.5620   -2.1288    0.9883 H   0  0  0  0  0  0  0  0  0  0  0  0
  9 16  1  0
  8  9  2  0
  5  9  1  0
  4 13  1  0
  7  8  1  0
  4  5  1  0
  5  6  2  0
  4 14  1  0
  3  4  1  0
  6  7  1  0
  7 15  1  0
  3 12  1  0
  1  2  2  0
  2  3  1  0
  3 11  1  0
  2 10  1  0
M  END
$$$$

     RDKit          3D

 11 11  0  0  0  0  0  0  0  0999 V2000
    1.1079   -1.1545    1.3074 O   0  0  0  0  0  0  0  0  0  0  0  0
    1.1648   -0.2049    0.3545 C   0  0  0  0  0  0  0  0  0  0  0  0
    0.1963    0.0427   -0.5807 C   0  0  0  0  0  0  0  0  0  0  0  0
   -0.9911   -0.4501   -0.8762 O   0  0  0  0  0  0  0  0  0  0  0  0
   -1.9225   -0.0066    0.0032 C   0  0  0  0  0  0  0  0  0  0  0  0
   -3.0518   -0.4695    0.0740 O   0  0  0  0  0  0  0  0  0  0  0  0
    0.6488    1.0488   -1.3804 O   0  0  0  0  0  0  0  0  0  0  0  0
    1.8946    1.4520   -0.8848 N   0  0  0  0  0  0  0  0  0  0  0  0
    2.1805    0.6817    0.1673 N   0  0  0  0  0  0  0  0  0  0  0  0
    0.3577   -1.7555    1.1550 H   0  0  0  0  0  0  0  0  0  0  0  0
   -1.5851    0.8161    0.6607 H   0  0  0  0  0  0  0  0  0  0  0  0
  1  2  1  0
  1 10  1  0
  2  3  2  0
  2  9  1  0
  3  4  1  0
  3  7  1  0
  4  5  1  0
  5  6  2  0
  5 11  1  0
  7  8  1  0
  8  9  2  0
M  END
$$$$

     RDKit          3D

 21 22  0  0  0  0  0  0  0  0999 V2000
    0.1164    2.5791    0.7143 C   0  0  0  0  0  0  0  0  0  0  0  0
    0.5893    1.4052   -0.1577 C   0  0  0  0  0  0  0  0  0  0  0  0
   -0.5101    1.0278   -0.9983 O   0  0  0  0  0  0  0  0  0  0  0  0
   -0.2032   -0.1264   -1.7648 C   0  0  0  0  0  0  0  0  0  0  0  0
   -1.1414   -1.2655   -1.4984 C   0  0  0  0  0  0  0  0  0  0  0  0
    0.2716   -1.3569   -0.9838 C   0  0  0  0  0  0  0  0  0  0  0  0
    0.5698   -1.0108    0.4818 C   0  0  0  0  0  0  0  0  0  0  0  0
   -0.2100   -1.6764    1.5947 C   0  0  0  0  0  0  0  0  0  0  0  0
    0.9151    0.2760    0.7685 C   0  0  0  0  0  0  0  0  0  0  0  0
   -0.7347    3.1339    0.2604 H   0  0  0  0  0  0  0  0  0  0  0  0
    0.9318    3.3022    0.9306 H   0  0  0  0  0  0  0  0  0  0  0  0
   -0.2403    2.2481    1.7204 H   0  0  0  0  0  0  0  0  0  0  0  0
    1.4495    1.6881   -0.7675 H   0  0  0  0  0  0  0  0  0  0  0  0
    0.0695   -0.0012   -2.7849 H   0  0  0  0  0  0  0  0  0  0  0  0
   -1.4167   -1.8476   -2.3718 H   0  0  0  0  0  0  0  0  0  0  0  0
   -1.9515   -1.1627   -0.8114 H   0  0  0  0  0  0  0  0  0  0  0  0
    0.8925   -2.0918   -1.4778 H   0  0  0  0  0  0  0  0  0  0  0  0
   -1.3289   -1.7005    1.4054 H   0  0  0  0  0  0  0  0  0  0  0  0
   -0.1045   -1.1274    2.5492 H   0  0  0  0  0  0  0  0  0  0  0  0
    0.1799   -2.6775    1.8346 H   0  0  0  0  0  0  0  0  0  0  0  0
    1.8560    0.3844    1.3564 H   0  0  0  0  0  0  0  0  0  0  0  0
  4 14  1  0
  5 15  1  0
  3  4  1  0
  4  5  1  0
  4  6  1  0
  2  3  1  0
  5 16  1  0
  5  6  1  0
  1 11  1  0
  1 10  1  0
  1  2  1  0
  1 12  1  0
  2 13  1  0
  2  9  1  0
  6 17  1  0
  6  7  1  0
  7  9  2  0
  9 21  1  0
  7  8  1  0
  8 18  1  0
  8 20  1  0
  8 19  1  0
M  END
$$$$

     RDKit          3D

 19 21  0  0  0  0  0  0  0  0999 V2000
    1.9135    1.1953   -0.8720 C   0  0  0  0  0  0  0  0  0  0  0  0
    1.4254    0.1460    0.1100 C   0  0  0  0  0  0  0  0  0  0  0  0
    1.0403   -1.1046   -0.5400 O   0  0  0  0  0  0  0  0  0  0  0  0
   -0.3170   -0.8322   -0.2035 C   0  0  0  0  0  0  0  0  0  0  0  0
   -1.1296    0.3504   -0.7986 C   0  0  0  0  0  0  0  0  0  0  0  0
   -1.3790    0.4866    0.7081 C   0  0  0  0  0  0  0  0  0  0  0  0
   -2.0860   -0.7286    1.1403 O   0  0  0  0  0  0  0  0  0  0  0  0
   -1.2577   -1.7604    0.5375 C   0  0  0  0  0  0  0  0  0  0  0  0
    0.1299    0.1828    0.9412 C   0  0  0  0  0  0  0  0  0  0  0  0
    1.3081    1.2615   -1.7794 H   0  0  0  0  0  0  0  0  0  0  0  0
    1.9418    2.1829   -0.3981 H   0  0  0  0  0  0  0  0  0  0  0  0
    2.9327    0.9561   -1.1994 H   0  0  0  0  0  0  0  0  0  0  0  0
    2.2717   -0.0531    0.7863 H   0  0  0  0  0  0  0  0  0  0  0  0
   -0.6476    1.2019   -1.2733 H   0  0  0  0  0  0  0  0  0  0  0  0
   -2.0035    0.0704   -1.3954 H   0  0  0  0  0  0  0  0  0  0  0  0
   -1.8058    1.4110    1.0973 H   0  0  0  0  0  0  0  0  0  0  0  0
   -1.8670   -2.3804   -0.1245 H   0  0  0  0  0  0  0  0  0  0  0  0
   -0.7775   -2.3534    1.3209 H   0  0  0  0  0  0  0  0  0  0  0  0
    0.3072   -0.2321    1.9428 H   0  0  0  0  0  0  0  0  0  0  0  0
  1 11  1  0
  2  3  1  0
  3  4  1  0
  1 10  1  0
  1  2  1  0
  1 12  1  0
  2 13  1  0
  8 17  1  0
  2  9  1  0
  8 18  1  0
  4  8  1  0
  4  5  1  0
  4  9  1  0
  7  8  1  0
  5 15  1  0
  5 14  1  0
  5  6  1  0
  9 19  1  0
  6  9  1  0
  6  7  1  0
  6 16  1  0
M  END
$$$$

     RDKit          3D

 23 23  0  0  0  0  0  0  0  0999 V2000
    2.1044    1.1611    0.7107 C   0  0  0  0  0  0  0  0  0  0  0  0
    1.4560    0.4192   -0.4440 C   0  0  0  0  0  0  0  0  0  0  0  0
    0.4915    1.1996   -1.1865 O   0  0  0  0  0  0  0  0  0  0  0  0
   -0.8435    1.0756   -0.6518 C   0  0  0  0  0  0  0  0  0  0  0  0
   -0.6881   -0.0357    0.4154 C   0  0  0  0  0  0  0  0  0  0  0  0
   -1.7930   -0.8893    0.8361 C   0  0  0  0  0  0  0  0  0  0  0  0
   -0.2676    0.7035    1.7087 O   0  0  0  0  0  0  0  0  0  0  0  0
    0.4432   -0.7308   -0.2204 C   0  0  0  0  0  0  0  0  0  0  0  0
   -0.0238   -1.4730   -1.6458 C   0  0  0  0  0  0  0  0  0  0  0  0
    1.4151    1.4282    1.7522 H   0  0  0  0  0  0  0  0  0  0  0  0
    2.8233    2.2582    0.5712 H   0  0  0  0  0  0  0  0  0  0  0  0
    2.6399    0.4533    1.4495 H   0  0  0  0  0  0  0  0  0  0  0  0
    2.3066    0.0320   -1.0715 H   0  0  0  0  0  0  0  0  0  0  0  0
   -1.4646    0.8590   -1.4866 H   0  0  0  0  0  0  0  0  0  0  0  0
   -1.1520    2.0970   -0.3390 H   0  0  0  0  0  0  0  0  0  0  0  0
   -1.6336   -1.2958    1.8898 H   0  0  0  0  0  0  0  0  0  0  0  0
   -1.9872   -1.8860    0.3034 H   0  0  0  0  0  0  0  0  0  0  0  0
   -2.8970   -0.0366    0.7628 H   0  0  0  0  0  0  0  0  0  0  0  0
   -1.1023    1.1736    2.0506 H   0  0  0  0  0  0  0  0  0  0  0  0
    0.8767   -1.7366    0.3626 H   0  0  0  0  0  0  0  0  0  0  0  0
   -0.5562   -2.5972   -1.3908 H   0  0  0  0  0  0  0  0  0  0  0  0
    0.8275   -1.2389   -2.3994 H   0  0  0  0  0  0  0  0  0  0  0  0
   -0.9754   -0.9405   -1.9773 H   0  0  0  0  0  0  0  0  0  0  0  0
  4 15  1  0
  1 11  1  0
  3  4  1  0
  2  3  1  0
  4 14  1  0
  4  5  1  0
  1 10  1  0
  1  2  1  0
  1 12  1  0
  7 19  1  0
  2 13  1  0
  2  8  1  0
  5  7  1  0
  5  8  1  0
  5  6  1  0
  6 16  1  0
  8 20  1  0
  8  9  1  0
  6 18  1  0
  6 17  1  0
  9 21  1  0
  9 22  1  0
  9 23  1  0
M  END
$$$$

     RDKit          3D

 18 18  0  0  0  0  0  0  0  0999 V2000
   -1.1106    2.2634    1.6281 C   0  0  0  0  0  0  0  0  0  0  0  0
   -1.4248    1.2787    0.6081 N   0  0  0  0  0  0  0  0  0  0  0  0
   -0.6204    0.0862    0.8015 C   0  0  0  0  0  0  0  0  0  0  0  0
   -1.0530   -1.0353   -0.1239 C   0  0  0  0  0  0  0  0  0  0  0  0
    0.2192   -1.8451   -0.2207 C   0  0  0  0  0  0  0  0  0  0  0  0
    1.2949   -0.7688   -0.1988 C   0  0  0  0  0  0  0  0  0  0  0  0
    0.7796    0.3032    0.6044 O   0  0  0  0  0  0  0  0  0  0  0  0
    1.6035   -0.2583   -1.5447 C   0  0  0  0  0  0  0  0  0  0  0  0
    1.8439    0.1745   -2.6388 C   0  0  0  0  0  0  0  0  0  0  0  0
   -0.0797    2.6248    1.5433 H   0  0  0  0  0  0  0  0  0  0  0  0
   -1.7686    3.1299    1.5073 H   0  0  0  0  0  0  0  0  0  0  0  0
   -1.2757    1.8640    2.6341 H   0  0  0  0  0  0  0  0  0  0  0  0
   -1.3302   -0.6625   -1.1181 H   0  0  0  0  0  0  0  0  0  0  0  0
   -1.8905   -1.6113    0.2811 H   0  0  0  0  0  0  0  0  0  0  0  0
    0.3095   -2.4730    0.6741 H   0  0  0  0  0  0  0  0  0  0  0  0
    0.2505   -2.4981   -1.0965 H   0  0  0  0  0  0  0  0  0  0  0  0
    2.2119   -1.1464    0.2669 H   0  0  0  0  0  0  0  0  0  0  0  0
    2.0404    0.5741   -3.6073 H   0  0  0  0  0  0  0  0  0  0  0  0
  9 18  1  0
  8  9  3  0
  6  8  1  0
  4 13  1  0
  1 10  1  0
  1 11  1  0
  6  7  1  0
  6 17  1  0
  5  6  1  0
  3  7  1  0
  1  2  1  0
  1 12  1  0
  2  3  1  0
  3  4  1  0
  4  5  1  0
  4 14  1  0
  5 15  1  0
  5 16  1  0
M  END
$$$$

     RDKit          3D

 17 17  0  0  0  0  0  0  0  0999 V2000
    1.4829    1.3948   -1.1127 C   0  0  0  0  0  0  0  0  0  0  0  0
    0.6757    0.3003   -1.5236 O   0  0  0  0  0  0  0  0  0  0  0  0
    0.1578   -0.5009   -0.4438 C   0  0  0  0  0  0  0  0  0  0  0  0
   -0.0496   -1.9563   -0.7658 C   0  0  0  0  0  0  0  0  0  0  0  0
    1.0878   -1.5356    0.1195 C   0  0  0  0  0  0  0  0  0  0  0  0
   -0.7964    0.1504    0.3984 C   0  0  0  0  0  0  0  0  0  0  0  0
   -1.6034    0.6936    1.1024 C   0  0  0  0  0  0  0  0  0  0  0  0
   -2.5745    1.3455    1.9377 C   0  0  0  0  0  0  0  0  0  0  0  0
   -2.3813    1.4743    3.1398 O   0  0  0  0  0  0  0  0  0  0  0  0
    1.8963    1.2544   -0.1073 H   0  0  0  0  0  0  0  0  0  0  0  0
    2.3143    1.5086   -1.8181 H   0  0  0  0  0  0  0  0  0  0  0  0
    0.8713    2.2977   -1.1435 H   0  0  0  0  0  0  0  0  0  0  0  0
   -0.8843   -2.4787   -0.3115 H   0  0  0  0  0  0  0  0  0  0  0  0
    0.1813   -2.2734   -1.7764 H   0  0  0  0  0  0  0  0  0  0  0  0
    1.0143   -1.7841    1.1675 H   0  0  0  0  0  0  0  0  0  0  0  0
    2.0910   -1.5951   -0.2914 H   0  0  0  0  0  0  0  0  0  0  0  0
   -3.4832    1.7044    1.4287 H   0  0  0  0  0  0  0  0  0  0  0  0
  8  9  2  0
  8 17  1  0
  7  8  1  0
  6  7  3  0
  3  6  1  0
  5 16  1  0
  4 13  1  0
  3  5  1  0
  3  4  1  0
  2  3  1  0
  4  5  1  0
  5 15  1  0
  4 14  1  0
  1 11  1  0
  1  2  1  0
  1 10  1  0
  1 12  1  0
M  END
$$$$

     RDKit          3D

 21 20  0  0  0  0  0  0  0  0999 V2000
    1.9386    0.9159    1.0691 C   0  0  0  0  0  0  0  0  0  0  0  0
    0.6309    0.1451    1.2406 C   0  0  0  0  0  0  0  0  0  0  0  0
   -0.5972    0.8475    0.6338 C   0  0  0  0  0  0  0  0  0  0  0  0
   -0.6031    2.2176    1.0397 O   0  0  0  0  0  0  0  0  0  0  0  0
   -0.6601    0.7978   -0.8889 C   0  0  0  0  0  0  0  0  0  0  0  0
   -0.5191   -0.5874   -1.5109 C   0  0  0  0  0  0  0  0  0  0  0  0
   -1.2883   -1.5394   -0.7512 O   0  0  0  0  0  0  0  0  0  0  0  0
   -0.8071   -2.8211   -0.7681 C   0  0  0  0  0  0  0  0  0  0  0  0
    0.1592   -3.2186   -1.3968 O   0  0  0  0  0  0  0  0  0  0  0  0
    1.8931    1.8750    1.6009 H   0  0  0  0  0  0  0  0  0  0  0  0
    2.1561    1.1212    0.0025 H   0  0  0  0  0  0  0  0  0  0  0  0
    2.7615    0.3436    1.5057 H   0  0  0  0  0  0  0  0  0  0  0  0
    0.7400   -0.8550    0.8172 H   0  0  0  0  0  0  0  0  0  0  0  0
    0.4623    0.0162    2.3133 H   0  0  0  0  0  0  0  0  0  0  0  0
   -1.4975    0.3711    1.0418 H   0  0  0  0  0  0  0  0  0  0  0  0
   -1.4728    2.5861    0.7855 H   0  0  0  0  0  0  0  0  0  0  0  0
   -1.6266    1.2156   -1.2131 H   0  0  0  0  0  0  0  0  0  0  0  0
    0.0971    1.4570   -1.3109 H   0  0  0  0  0  0  0  0  0  0  0  0
    0.5574   -0.8619   -1.5589 H   0  0  0  0  0  0  0  0  0  0  0  0
   -0.9012   -0.5661   -2.5398 H   0  0  0  0  0  0  0  0  0  0  0  0
   -1.4230   -3.4600   -0.1116 H   0  0  0  0  0  0  0  0  0  0  0  0
  6 19  1  0
  8  9  2  0
  8 21  1  0
  7  8  1  0
  6  7  1  0
  6 20  1  0
  5  6  1  0
  3 15  1  0
  5 18  1  0
  3  5  1  0
  5 17  1  0
  3  4  1  0
  4 16  1  0
  2  3  1  0
  1 11  1  0
  2 14  1  0
  1  2  1  0
  2 13  1  0
  1 10  1  0
  1 12  1  0
M  END
$$$$

     RDKit          3D

 17 18  0  0  0  0  0  0  0  0999 V2000
   -0.6383    0.5107   -2.0955 O   0  0  0  0  0  0  0  0  0  0  0  0
   -0.4825    0.0246   -0.7553 C   0  0  0  0  0  0  0  0  0  0  0  0
    0.2413    1.0785    0.0486 C   0  0  0  0  0  0  0  0  0  0  0  0
   -0.4965    1.8338    1.1274 C   0  0  0  0  0  0  0  0  0  0  0  0
    0.5472    0.8695    1.4665 N   0  0  0  0  0  0  0  0  0  0  0  0
    0.2470   -1.2870   -0.7775 C   0  0  0  0  0  0  0  0  0  0  0  0
    0.1202   -2.2514    0.3695 C   0  0  0  0  0  0  0  0  0  0  0  0
   -0.5939   -2.4515   -0.8631 O   0  0  0  0  0  0  0  0  0  0  0  0
    0.2558    0.5544   -2.4867 H   0  0  0  0  0  0  0  0  0  0  0  0
   -1.4983   -0.1234   -0.3595 H   0  0  0  0  0  0  0  0  0  0  0  0
    0.9962    1.5985   -0.5297 H   0  0  0  0  0  0  0  0  0  0  0  0
   -1.5107    1.5406    1.3732 H   0  0  0  0  0  0  0  0  0  0  0  0
   -0.2644    2.8818    1.2802 H   0  0  0  0  0  0  0  0  0  0  0  0
    1.4076    1.3508    1.7358 H   0  0  0  0  0  0  0  0  0  0  0  0
    1.1618   -1.2789   -1.3558 H   0  0  0  0  0  0  0  0  0  0  0  0
   -0.4405   -1.9376    1.2439 H   0  0  0  0  0  0  0  0  0  0  0  0
    0.9483   -2.9135    0.5779 H   0  0  0  0  0  0  0  0  0  0  0  0
  4 12  1  0
  5 14  1  0
  4  5  1  0
  3  5  1  0
  4 13  1  0
  3  4  1  0
  3 11  1  0
  2  3  1  0
  2 10  1  0
  1  2  1  0
  2  6  1  0
  1  9  1  0
  6  8  1  0
  6 15  1  0
  6  7  1  0
  7  8  1  0
  7 17  1  0
  7 16  1  0
M  END
$$$$

     RDKit          3D

 22 23  0  0  0  0  0  0  0  0999 V2000
   -0.5139    1.8410   -0.1472 C   0  0  0  0  0  0  0  0  0  0  0  0
   -0.3370    0.5950   -0.9660 C   0  0  0  0  0  0  0  0  0  0  0  0
   -1.4459    0.3479   -1.9712 C   0  0  0  0  0  0  0  0  0  0  0  0
    1.0670    0.2469   -1.3754 C   0  0  0  0  0  0  0  0  0  0  0  0
    0.3211   -0.6193   -0.4470 N   0  0  0  0  0  0  0  0  0  0  0  0
    0.8066   -0.5441    0.9330 C   0  0  0  0  0  0  0  0  0  0  0  0
   -0.3599   -0.6712    1.9215 C   0  0  0  0  0  0  0  0  0  0  0  0
    0.3465   -1.7247    2.6377 O   0  0  0  0  0  0  0  0  0  0  0  0
    1.1464   -1.9547    1.4387 C   0  0  0  0  0  0  0  0  0  0  0  0
   -1.5125    1.8816    0.3052 H   0  0  0  0  0  0  0  0  0  0  0  0
    0.2162    1.9501    0.6547 H   0  0  0  0  0  0  0  0  0  0  0  0
   -0.4121    2.7220   -0.7808 H   0  0  0  0  0  0  0  0  0  0  0  0
   -1.2926   -0.6003   -2.4995 H   0  0  0  0  0  0  0  0  0  0  0  0
   -2.4048    0.2900   -1.4542 H   0  0  0  0  0  0  0  0  0  0  0  0
   -1.4818    1.1514   -2.7111 H   0  0  0  0  0  0  0  0  0  0  0  0
    1.9069    0.8182   -0.9950 H   0  0  0  0  0  0  0  0  0  0  0  0
    1.2444   -0.1734   -2.3673 H   0  0  0  0  0  0  0  0  0  0  0  0
    1.5844    0.2024    1.1780 H   0  0  0  0  0  0  0  0  0  0  0  0
   -1.3167   -1.0396    1.5501 H   0  0  0  0  0  0  0  0  0  0  0  0
   -0.5191    0.2120    2.5439 H   0  0  0  0  0  0  0  0  0  0  0  0
    0.7533   -2.8167    0.8910 H   0  0  0  0  0  0  0  0  0  0  0  0
    2.2037   -2.1146    1.6607 H   0  0  0  0  0  0  0  0  0  0  0  0
  3 13  1  0
  1 11  1  0
  4 16  1  0
  3 14  1  0
  2  3  1  0
  3 15  1  0
  1 10  1  0
  1  2  1  0
  1 12  1  0
  4 17  1  0
  2  4  1  0
  4  5  1  0
  2  5  1  0
  5  6  1  0
  6 18  1  0
  6  9  1  0
  6  7  1  0
  9 21  1  0
  9 22  1  0
  8  9  1  0
  7 20  1  0
  7 19  1  0
  7  8  1  0
M  END
$$$$

     RDKit          3D

 19 21  0  0  0  0  0  0  0  0999 V2000
   -0.0216   -1.4552    0.6601 C   0  0  0  0  0  0  0  0  0  0  0  0
    1.0936   -1.0990   -0.3291 C   0  0  0  0  0  0  0  0  0  0  0  0
    0.6584   -0.0477   -1.3518 C   0  0  0  0  0  0  0  0  0  0  0  0
   -0.7770   -0.1315   -1.6156 O   0  0  0  0  0  0  0  0  0  0  0  0
   -0.9939    1.0359   -0.7777 C   0  0  0  0  0  0  0  0  0  0  0  0
   -0.7547    1.0090    0.7516 C   0  0  0  0  0  0  0  0  0  0  0  0
   -0.5510   -0.2995    1.5111 C   0  0  0  0  0  0  0  0  0  0  0  0
    0.5340    1.6759    0.5722 O   0  0  0  0  0  0  0  0  0  0  0  0
    0.4833    1.3934   -0.8425 C   0  0  0  0  0  0  0  0  0  0  0  0
   -0.8629   -1.8962    0.1088 H   0  0  0  0  0  0  0  0  0  0  0  0
    0.3380   -2.2445    1.3321 H   0  0  0  0  0  0  0  0  0  0  0  0
    1.9896   -0.7597    0.2047 H   0  0  0  0  0  0  0  0  0  0  0  0
    1.3754   -2.0153   -0.8630 H   0  0  0  0  0  0  0  0  0  0  0  0
    1.2373   -0.1013   -2.2806 H   0  0  0  0  0  0  0  0  0  0  0  0
   -1.6846    1.7729   -1.1922 H   0  0  0  0  0  0  0  0  0  0  0  0
   -1.4378    1.6732    1.2966 H   0  0  0  0  0  0  0  0  0  0  0  0
   -1.5051   -0.6121    1.9522 H   0  0  0  0  0  0  0  0  0  0  0  0
    0.1283   -0.1271    2.3554 H   0  0  0  0  0  0  0  0  0  0  0  0
    0.7509    2.2288   -1.4923 H   0  0  0  0  0  0  0  0  0  0  0  0
  1 11  1  0
  2 12  1  0
  7 18  1  0
  2 13  1  0
  1  2  1  0
  1  7  1  0
  1 10  1  0
  2  3  1  0
  7 17  1  0
  6  7  1  0
  6  8  1  0
  8  9  1  0
  6 16  1  0
  5  6  1  0
  3 14  1  0
  3  9  1  0
  3  4  1  0
  9 19  1  0
  5  9  1  0
  4  5  1  0
  5 15  1  0
M  END
$$$$

     RDKit          3D

 15 16  0  0  0  0  0  0  0  0999 V2000
   -0.0391   -0.4309    2.7103 O   0  0  0  0  0  0  0  0  0  0  0  0
   -0.2244   -0.2304    1.5213 C   0  0  0  0  0  0  0  0  0  0  0  0
   -1.5926   -0.0273    0.8297 C   0  0  0  0  0  0  0  0  0  0  0  0
   -1.2695    0.1962   -0.6935 C   0  0  0  0  0  0  0  0  0  0  0  0
    0.1958    0.0994   -0.6981 C   0  0  0  0  0  0  0  0  0  0  0  0
    0.7788   -0.1350    0.5092 C   0  0  0  0  0  0  0  0  0  0  0  0
    2.1407   -0.1870    0.2606 C   0  0  0  0  0  0  0  0  0  0  0  0
    2.4012    0.0071   -1.0465 N   0  0  0  0  0  0  0  0  0  0  0  0
    1.1818    0.1829   -1.6162 N   0  0  0  0  0  0  0  0  0  0  0  0
   -2.2130   -0.9180    0.9691 H   0  0  0  0  0  0  0  0  0  0  0  0
   -2.0920    0.8497    1.2536 H   0  0  0  0  0  0  0  0  0  0  0  0
   -1.7383   -0.5805   -1.3056 H   0  0  0  0  0  0  0  0  0  0  0  0
   -1.6222    1.1782   -1.0233 H   0  0  0  0  0  0  0  0  0  0  0  0
    2.9610   -0.3541    0.9466 H   0  0  0  0  0  0  0  0  0  0  0  0
    1.1318    0.3497   -2.6171 H   0  0  0  0  0  0  0  0  0  0  0  0
  4 12  1  0
  3 10  1  0
  7 14  1  0
  7  8  2  0
  8  9  1  0
  6  7  1  0
  9 15  1  0
  5  9  1  0
  5  6  2  0
  2  6  1  0
  1  2  2  0
  4  5  1  0
  2  3  1  0
  3  4  1  0
  4 13  1  0
  3 11  1  0
M  END
$$$$

     RDKit          3D

 15 15  0  0  0  0  0  0  0  0999 V2000
   -1.4431    1.4344   -0.0473 C   0  0  0  0  0  0  0  0  0  0  0  0
   -0.4554    0.3397   -0.1259 C   0  0  0  0  0  0  0  0  0  0  0  0
    0.5465   -0.0834    0.7152 C   0  0  0  0  0  0  0  0  0  0  0  0
    0.8889    0.4525    1.8854 N   0  0  0  0  0  0  0  0  0  0  0  0
    1.2183   -1.1604    0.2313 N   0  0  0  0  0  0  0  0  0  0  0  0
    0.6231   -1.4107   -0.9030 C   0  0  0  0  0  0  0  0  0  0  0  0
    0.9712   -2.3997   -1.6964 O   0  0  0  0  0  0  0  0  0  0  0  0
   -0.3910   -0.5455   -1.1760 N   0  0  0  0  0  0  0  0  0  0  0  0
   -1.9567    1.5822   -1.0027 H   0  0  0  0  0  0  0  0  0  0  0  0
   -0.9540    2.3769    0.2191 H   0  0  0  0  0  0  0  0  0  0  0  0
   -2.1978    1.2122    0.7137 H   0  0  0  0  0  0  0  0  0  0  0  0
    1.7814    0.1655    2.2720 H   0  0  0  0  0  0  0  0  0  0  0  0
    0.6420    1.4090    2.1031 H   0  0  0  0  0  0  0  0  0  0  0  0
    1.7016   -2.8001   -1.1899 H   0  0  0  0  0  0  0  0  0  0  0  0
   -0.9748   -0.5725   -1.9988 H   0  0  0  0  0  0  0  0  0  0  0  0
  4 13  1  0
  4 12  1  0
  3  4  1  0
  3  5  1  0
  2  3  2  0
  1 10  1  0
  5  6  2  0
  1  2  1  0
  2  8  1  0
  1 11  1  0
  1  9  1  0
  6  8  1  0
  6  7  1  0
  7 14  1  0
  8 15  1  0
M  END
$$$$

     RDKit          3D

 16 16  0  0  0  0  0  0  0  0999 V2000
   -1.4300    2.3264   -0.9751 C   0  0  0  0  0  0  0  0  0  0  0  0
   -0.3540    1.5263   -1.4782 O   0  0  0  0  0  0  0  0  0  0  0  0
    0.0055    0.4511   -0.7561 C   0  0  0  0  0  0  0  0  0  0  0  0
   -0.4814    0.0373    0.3717 N   0  0  0  0  0  0  0  0  0  0  0  0
    0.2938   -1.0734    0.6560 N   0  0  0  0  0  0  0  0  0  0  0  0
    0.2483   -1.7285    1.9356 C   0  0  0  0  0  0  0  0  0  0  0  0
    1.2865   -1.2221   -0.3149 C   0  0  0  0  0  0  0  0  0  0  0  0
    2.2522   -1.9686   -0.3082 O   0  0  0  0  0  0  0  0  0  0  0  0
    1.0071   -0.2838   -1.2633 N   0  0  0  0  0  0  0  0  0  0  0  0
   -1.0989    3.3700   -0.9562 H   0  0  0  0  0  0  0  0  0  0  0  0
   -1.7639    2.0462    0.0301 H   0  0  0  0  0  0  0  0  0  0  0  0
   -2.2678    2.2403   -1.6778 H   0  0  0  0  0  0  0  0  0  0  0  0
   -0.7691   -2.0898    2.1123 H   0  0  0  0  0  0  0  0  0  0  0  0
    0.9477   -2.5697    1.9576 H   0  0  0  0  0  0  0  0  0  0  0  0
    0.5342   -1.0132    2.7096 H   0  0  0  0  0  0  0  0  0  0  0  0
    1.5895   -0.0486   -2.0431 H   0  0  0  0  0  0  0  0  0  0  0  0
  6 13  1  0
  6 15  1  0
  6 14  1  0
  5  6  1  0
  7  8  2  0
  5  7  1  0
  4  5  1  0
  7  9  1  0
  3  4  2  0
  3  9  1  0
  9 16  1  0
  2  3  1  0
  1 11  1  0
  1  2  1  0
  1 10  1  0
  1 12  1  0
M  END
$$$$

     RDKit          3D

 18 20  0  0  0  0  0  0  0  0999 V2000
   -1.2271   -0.8960    2.0085 C   0  0  0  0  0  0  0  0  0  0  0  0
   -1.5742   -0.3558    0.7415 O   0  0  0  0  0  0  0  0  0  0  0  0
   -0.4905   -0.0334   -0.1507 C   0  0  0  0  0  0  0  0  0  0  0  0
   -0.8083    0.8913   -1.3817 C   0  0  0  0  0  0  0  0  0  0  0  0
    0.4354    1.6589   -1.1249 N   0  0  0  0  0  0  0  0  0  0  0  0
    1.6417    0.8633   -0.7175 C   0  0  0  0  0  0  0  0  0  0  0  0
    1.6170   -0.5975   -0.9375 C   0  0  0  0  0  0  0  0  0  0  0  0
    0.4382   -1.1618   -0.5788 C   0  0  0  0  0  0  0  0  0  0  0  0
    0.4742    1.0776    0.2013 C   0  0  0  0  0  0  0  0  0  0  0  0
   -1.1408   -1.9795    1.9368 H   0  0  0  0  0  0  0  0  0  0  0  0
   -0.2835   -0.4723    2.3765 H   0  0  0  0  0  0  0  0  0  0  0  0
   -2.0218   -0.6564    2.7222 H   0  0  0  0  0  0  0  0  0  0  0  0
   -1.7235    1.4910   -1.2668 H   0  0  0  0  0  0  0  0  0  0  0  0
   -0.8505    0.3922   -2.3558 H   0  0  0  0  0  0  0  0  0  0  0  0
    2.5739    1.3796   -0.5377 H   0  0  0  0  0  0  0  0  0  0  0  0
    2.4685   -1.1372   -1.3221 H   0  0  0  0  0  0  0  0  0  0  0  0
    0.1556   -2.2045   -0.6460 H   0  0  0  0  0  0  0  0  0  0  0  0
    0.3157    1.7404    1.0326 H   0  0  0  0  0  0  0  0  0  0  0  0
  7 16  1  0
  8 17  1  0
  7  8  2  0
  6  7  1  0
  3  8  1  0
  1 11  1  0
  6 15  1  0
  6  9  1  0
  5  6  1  0
  2  3  1  0
  1  2  1  0
  3  9  1  0
  3  4  1  0
  9 18  1  0
  5  9  1  0
  1 10  1  0
  1 12  1  0
  4  5  1  0
  4 14  1  0
  4 13  1  0
M  END
$$$$

     RDKit          3D

 16 16  0  0  0  0  0  0  0  0999 V2000
    0.1728   -1.7999   -0.8984 O   0  0  0  0  0  0  0  0  0  0  0  0
    0.3127   -0.5256   -0.2387 C   0  0  0  0  0  0  0  0  0  0  0  0
   -0.2699    0.6979   -1.0102 C   0  0  0  0  0  0  0  0  0  0  0  0
   -0.7671    1.2532    0.3363 C   0  0  0  0  0  0  0  0  0  0  0  0
   -0.7200   -0.1997    0.8935 C   0  0  0  0  0  0  0  0  0  0  0  0
   -1.9935   -0.8941    0.8159 C   0  0  0  0  0  0  0  0  0  0  0  0
   -3.0482   -1.3825    0.7662 N   0  0  0  0  0  0  0  0  0  0  0  0
    1.7088   -0.3714    0.1413 C   0  0  0  0  0  0  0  0  0  0  0  0
    2.8653   -0.2187    0.4388 C   0  0  0  0  0  0  0  0  0  0  0  0
    0.5756   -1.6766   -1.7773 H   0  0  0  0  0  0  0  0  0  0  0  0
   -1.0764    0.4349   -1.7107 H   0  0  0  0  0  0  0  0  0  0  0  0
    0.4498    1.3424   -1.5252 H   0  0  0  0  0  0  0  0  0  0  0  0
   -1.7496    1.7481    0.3260 H   0  0  0  0  0  0  0  0  0  0  0  0
   -0.0512    1.9244    0.8263 H   0  0  0  0  0  0  0  0  0  0  0  0
   -0.2989   -0.2511    1.9073 H   0  0  0  0  0  0  0  0  0  0  0  0
    3.8897   -0.0815    0.7088 H   0  0  0  0  0  0  0  0  0  0  0  0
  9 16  1  0
  8  9  3  0
  6  7  3  0
  2  8  1  0
  1 10  1  0
  5  6  1  0
  5 15  1  0
  2  5  1  0
  4  5  1  0
  1  2  1  0
  2  3  1  0
  3 11  1  0
  3  4  1  0
  3 12  1  0
  4 14  1  0
  4 13  1  0
M  END
$$$$

     RDKit          3D

 16 17  0  0  0  0  0  0  0  0999 V2000
   -0.5773    1.6669    0.1667 C   0  0  0  0  0  0  0  0  0  0  0  0
   -0.0275    0.3891    0.6993 C   0  0  0  0  0  0  0  0  0  0  0  0
    1.4498    0.2076    0.8064 C   0  0  0  0  0  0  0  0  0  0  0  0
    1.2664   -1.1679    0.1309 C   0  0  0  0  0  0  0  0  0  0  0  0
    1.9289   -2.1318   -0.1818 O   0  0  0  0  0  0  0  0  0  0  0  0
   -0.1722   -0.9408   -0.0265 C   0  0  0  0  0  0  0  0  0  0  0  0
   -0.9299   -0.6392    1.1888 N   0  0  0  0  0  0  0  0  0  0  0  0
   -0.8389   -1.0258   -1.2866 C   0  0  0  0  0  0  0  0  0  0  0  0
   -1.4015   -1.1013   -2.3449 C   0  0  0  0  0  0  0  0  0  0  0  0
   -1.6613    1.6194    0.0155 H   0  0  0  0  0  0  0  0  0  0  0  0
   -0.3762    2.4803    0.8716 H   0  0  0  0  0  0  0  0  0  0  0  0
   -0.1124    1.9283   -0.7898 H   0  0  0  0  0  0  0  0  0  0  0  0
    1.8384    0.1494    1.8271 H   0  0  0  0  0  0  0  0  0  0  0  0
    2.0663    0.8973    0.2225 H   0  0  0  0  0  0  0  0  0  0  0  0
   -0.5473   -1.1561    1.9814 H   0  0  0  0  0  0  0  0  0  0  0  0
   -1.9055   -1.1755   -3.2805 H   0  0  0  0  0  0  0  0  0  0  0  0
  3 14  1  0
  1 11  1  0
  7 15  1  0
  2  7  1  0
  6  7  1  0
  2  3  1  0
  3 13  1  0
  3  4  1  0
  1  2  1  0
  1 10  1  0
  1 12  1  0
  2  6  1  0
  4  6  1  0
  4  5  2  0
  6  8  1  0
  8  9  3  0
  9 16  1  0
M  END
$$$$

     RDKit          3D

 18 18  0  0  0  0  0  0  0  0999 V2000
    1.5073    1.5585    1.0053 O   0  0  0  0  0  0  0  0  0  0  0  0
    1.0395    0.3801    1.6296 C   0  0  0  0  0  0  0  0  0  0  0  0
    0.8290   -0.7061    0.5721 C   0  0  0  0  0  0  0  0  0  0  0  0
   -0.5365   -0.4839   -0.1128 C   0  0  0  0  0  0  0  0  0  0  0  0
   -1.6262   -0.7073    0.7837 O   0  0  0  0  0  0  0  0  0  0  0  0
   -0.8457   -0.9605   -1.5693 C   0  0  0  0  0  0  0  0  0  0  0  0
   -0.6265    0.5471   -1.1365 C   0  0  0  0  0  0  0  0  0  0  0  0
    0.4324    1.1628   -1.8331 C   0  0  0  0  0  0  0  0  0  0  0  0
    1.3584    1.5470   -2.4198 N   0  0  0  0  0  0  0  0  0  0  0  0
    1.0430    2.2198    1.6256 H   0  0  0  0  0  0  0  0  0  0  0  0
    0.0490    0.6009    2.1612 H   0  0  0  0  0  0  0  0  0  0  0  0
    1.7952    0.0790    2.3415 H   0  0  0  0  0  0  0  0  0  0  0  0
    1.6937   -0.7183   -0.1537 H   0  0  0  0  0  0  0  0  0  0  0  0
    0.8542   -1.6706    1.0613 H   0  0  0  0  0  0  0  0  0  0  0  0
   -2.4576   -1.0267    0.3748 H   0  0  0  0  0  0  0  0  0  0  0  0
   -1.9049   -0.9998   -2.0717 H   0  0  0  0  0  0  0  0  0  0  0  0
   -1.1223   -2.0352   -1.3081 H   0  0  0  0  0  0  0  0  0  0  0  0
   -1.4820    1.2130   -0.9499 H   0  0  0  0  0  0  0  0  0  0  0  0
  3 14  1  0
  5 15  1  0
  4  5  1  0
  1 10  1  0
  7 18  1  0
  2 11  1  0
  3  4  1  0
  2  3  1  0
  3 13  1  0
  4  7  1  0
  4  6  1  0
  7  8  1  0
  6  7  1  0
  8  9  3  0
  1  2  1  0
  2 12  1  0
  6 16  1  0
  6 17  1  0
M  END
$$$$

     RDKit          3D

 17 17  0  0  0  0  0  0  0  0999 V2000
    1.0942    1.4194   -0.0947 C   0  0  0  0  0  0  0  0  0  0  0  0
    0.1228    0.2793   -0.3085 C   0  0  0  0  0  0  0  0  0  0  0  0
   -0.8767    0.5392   -1.4146 C   0  0  0  0  0  0  0  0  0  0  0  0
    0.6811   -1.1285   -0.2074 C   0  0  0  0  0  0  0  0  0  0  0  0
   -0.2317   -0.6214    0.8697 C   0  0  0  0  0  0  0  0  0  0  0  0
    0.4273   -0.3378    2.1311 O   0  0  0  0  0  0  0  0  0  0  0  0
   -1.5229   -1.2446    1.0242 C   0  0  0  0  0  0  0  0  0  0  0  0
   -2.4759   -1.8724    1.2671 N   0  0  0  0  0  0  0  0  0  0  0  0
    0.7092    2.3533   -0.5336 H   0  0  0  0  0  0  0  0  0  0  0  0
    1.2918    1.6194    0.9669 H   0  0  0  0  0  0  0  0  0  0  0  0
    2.0522    1.1911   -0.5803 H   0  0  0  0  0  0  0  0  0  0  0  0
   -1.5268   -0.3318   -1.6138 H   0  0  0  0  0  0  0  0  0  0  0  0
   -1.5143    1.3867   -1.1541 H   0  0  0  0  0  0  0  0  0  0  0  0
   -0.3527    0.7797   -2.3500 H   0  0  0  0  0  0  0  0  0  0  0  0
    1.7321   -1.2479    0.0519 H   0  0  0  0  0  0  0  0  0  0  0  0
    0.3039   -1.8757   -0.8990 H   0  0  0  0  0  0  0  0  0  0  0  0
    0.0861   -0.9081    2.8450 H   0  0  0  0  0  0  0  0  0  0  0  0
  3 12  1  0
  1 10  1  0
  4 15  1  0
  3 13  1  0
  3 14  1  0
  2  3  1  0
  4 16  1  0
  2  4  1  0
  4  5  1  0
  1  2  1  0
  2  5  1  0
  1  9  1  0
  1 11  1  0
  5  7  1  0
  5  6  1  0
  7  8  3  0
  6 17  1  0
M  END
$$$$

     RDKit          3D

 23 23  0  0  0  0  0  0  0  0999 V2000
    1.3121    0.5993   -1.4448 C   0  0  0  0  0  0  0  0  0  0  0  0
   -0.1511    0.3871   -1.1220 C   0  0  0  0  0  0  0  0  0  0  0  0
   -0.4727   -0.8830   -0.3525 C   0  0  0  0  0  0  0  0  0  0  0  0
   -0.7040   -0.6734    1.1527 C   0  0  0  0  0  0  0  0  0  0  0  0
    0.5449   -0.3055    1.9457 C   0  0  0  0  0  0  0  0  0  0  0  0
    1.1498   -1.4622    2.7342 C   0  0  0  0  0  0  0  0  0  0  0  0
    0.6845   -2.5953    2.8073 O   0  0  0  0  0  0  0  0  0  0  0  0
   -1.1260    0.8088   -2.2106 C   0  0  0  0  0  0  0  0  0  0  0  0
   -1.0456    1.6057   -0.9480 C   0  0  0  0  0  0  0  0  0  0  0  0
    1.5258    0.2508   -2.4604 H   0  0  0  0  0  0  0  0  0  0  0  0
    1.5765    1.6615   -1.4004 H   0  0  0  0  0  0  0  0  0  0  0  0
    1.9786    0.0527   -0.7688 H   0  0  0  0  0  0  0  0  0  0  0  0
    0.3167   -1.6308   -0.5022 H   0  0  0  0  0  0  0  0  0  0  0  0
   -1.3908   -1.3280   -0.7596 H   0  0  0  0  0  0  0  0  0  0  0  0
   -1.4593    0.1065    1.3095 H   0  0  0  0  0  0  0  0  0  0  0  0
   -1.1612   -1.5867    1.5516 H   0  0  0  0  0  0  0  0  0  0  0  0
    0.2964    0.4881    2.6720 H   0  0  0  0  0  0  0  0  0  0  0  0
    1.3419    0.0785    1.2947 H   0  0  0  0  0  0  0  0  0  0  0  0
    2.0703   -1.2092    3.2934 H   0  0  0  0  0  0  0  0  0  0  0  0
   -0.7402    1.2573   -3.1283 H   0  0  0  0  0  0  0  0  0  0  0  0
   -2.0228    0.2177   -2.3866 H   0  0  0  0  0  0  0  0  0  0  0  0
   -0.6078    2.6017   -0.9785 H   0  0  0  0  0  0  0  0  0  0  0  0
   -1.9161    1.5584   -0.2986 H   0  0  0  0  0  0  0  0  0  0  0  0
  6 19  1  0
  6  7  2  0
  5  6  1  0
  4 16  1  0
  5 17  1  0
  4  5  1  0
  5 18  1  0
  4 15  1  0
  3  4  1  0
  8 20  1  0
  3 13  1  0
  8 21  1  0
  2  3  1  0
  3 14  1  0
  2  8  1  0
  8  9  1  0
  1 11  1  0
  1  2  1  0
  2  9  1  0
  1 10  1  0
  1 12  1  0
  9 23  1  0
  9 22  1  0
M  END
$$$$

     RDKit          3D

 17 18  0  0  0  0  0  0  0  0999 V2000
   -2.8040    2.0563   -1.4609 C   0  0  0  0  0  0  0  0  0  0  0  0
   -1.7922    1.4980   -1.1377 C   0  0  0  0  0  0  0  0  0  0  0  0
   -0.5842    0.9433   -0.6190 C   0  0  0  0  0  0  0  0  0  0  0  0
   -0.6735    0.1161    0.6490 C   0  0  0  0  0  0  0  0  0  0  0  0
    0.4014    0.3863    1.5940 O   0  0  0  0  0  0  0  0  0  0  0  0
    1.4611   -0.5913    1.6313 C   0  0  0  0  0  0  0  0  0  0  0  0
    1.8427   -1.1456    0.2902 C   0  0  0  0  0  0  0  0  0  0  0  0
    1.0154   -1.0897   -0.7604 C   0  0  0  0  0  0  0  0  0  0  0  0
   -0.3405   -0.5410   -0.6633 C   0  0  0  0  0  0  0  0  0  0  0  0
   -3.7075    2.6101   -1.6776 H   0  0  0  0  0  0  0  0  0  0  0  0
    0.2789    1.5955   -0.6820 H   0  0  0  0  0  0  0  0  0  0  0  0
   -1.6649   -0.0420    1.0515 H   0  0  0  0  0  0  0  0  0  0  0  0
    2.3346   -0.0905    2.0762 H   0  0  0  0  0  0  0  0  0  0  0  0
    1.1897   -1.4236    2.3123 H   0  0  0  0  0  0  0  0  0  0  0  0
    2.8191   -1.6175    0.2113 H   0  0  0  0  0  0  0  0  0  0  0  0
    1.3404   -1.5004   -1.7107 H   0  0  0  0  0  0  0  0  0  0  0  0
   -1.1165   -1.1640   -1.1042 H   0  0  0  0  0  0  0  0  0  0  0  0
  8 16  1  0
  9 17  1  0
  3 11  1  0
  3  9  1  0
  8  9  1  0
  4  9  1  0
  2  3  1  0
  3  4  1  0
  7  8  2  0
  1  2  3  0
  1 10  1  0
  7 15  1  0
  6  7  1  0
  4 12  1  0
  4  5  1  0
  5  6  1  0
  6 13  1  0
  6 14  1  0
M  END
$$$$

     RDKit          3D

 18 21  0  0  0  0  0  0  0  0999 V2000
    1.3238    2.1688   -0.0015 O   0  0  0  0  0  0  0  0  0  0  0  0
    0.5456    0.9648    0.0636 C   0  0  0  0  0  0  0  0  0  0  0  0
    1.2802   -0.2989   -0.3813 C   0  0  0  0  0  0  0  0  0  0  0  0
    0.3325   -1.5349   -0.6665 C   0  0  0  0  0  0  0  0  0  0  0  0
   -1.0619   -1.4705   -0.1207 N   0  0  0  0  0  0  0  0  0  0  0  0
   -1.1344   -0.6618    1.1663 C   0  0  0  0  0  0  0  0  0  0  0  0
   -1.6997   -0.2392   -0.2525 C   0  0  0  0  0  0  0  0  0  0  0  0
   -0.9202    1.0485   -0.2516 C   0  0  0  0  0  0  0  0  0  0  0  0
   -0.4664    0.7521    1.1449 C   0  0  0  0  0  0  0  0  0  0  0  0
    2.0976    2.0785   -0.5898 H   0  0  0  0  0  0  0  0  0  0  0  0
    1.9453   -0.5949    0.4556 H   0  0  0  0  0  0  0  0  0  0  0  0
    1.9041   -0.1153   -1.2769 H   0  0  0  0  0  0  0  0  0  0  0  0
    0.3254   -1.7053   -1.7536 H   0  0  0  0  0  0  0  0  0  0  0  0
    0.8130   -2.4248   -0.2229 H   0  0  0  0  0  0  0  0  0  0  0  0
   -0.4387   -1.2545    1.7061 H   0  0  0  0  0  0  0  0  0  0  0  0
   -2.7581   -0.2121   -0.4494 H   0  0  0  0  0  0  0  0  0  0  0  0
   -1.3772    2.0318   -0.4659 H   0  0  0  0  0  0  0  0  0  0  0  0
   -0.7108    1.4676    1.8962 H   0  0  0  0  0  0  0  0  0  0  0  0
  4 13  1  0
  3 11  1  0
  3  4  1  0
  4 14  1  0
  4  5  1  0
  3 12  1  0
  2  3  1  0
  7 16  1  0
  5  7  1  0
  5  6  1  0
  1  2  1  0
  2  8  1  0
  2  9  1  0
  7  8  1  0
  6  7  1  0
  1 10  1  0
  8 17  1  0
  8  9  1  0
  6  9  1  0
  6 15  1  0
  9 18  1  0
M  END
$$$$

     RDKit          3D

 18 18  0  0  0  0  0  0  0  0999 V2000
   -0.8975    1.4336    0.9068 C   0  0  0  0  0  0  0  0  0  0  0  0
   -1.4429    0.6358   -0.2599 C   0  0  0  0  0  0  0  0  0  0  0  0
   -1.1689    1.3513   -1.4636 O   0  0  0  0  0  0  0  0  0  0  0  0
   -0.9790   -0.7930   -0.3709 C   0  0  0  0  0  0  0  0  0  0  0  0
    0.0365   -0.9561   -1.3805 O   0  0  0  0  0  0  0  0  0  0  0  0
    0.3919   -1.4429   -0.0871 C   0  0  0  0  0  0  0  0  0  0  0  0
    1.5495   -0.7953    0.6024 C   0  0  0  0  0  0  0  0  0  0  0  0
    2.5257   -0.4121   -0.4222 C   0  0  0  0  0  0  0  0  0  0  0  0
    3.3280   -0.0964   -1.2010 N   0  0  0  0  0  0  0  0  0  0  0  0
   -0.9458    0.8729    1.8428 H   0  0  0  0  0  0  0  0  0  0  0  0
   -1.4706    2.3599    1.0266 H   0  0  0  0  0  0  0  0  0  0  0  0
    0.1330    1.7532    0.7247 H   0  0  0  0  0  0  0  0  0  0  0  0
   -2.5345    0.6171   -0.1624 H   0  0  0  0  0  0  0  0  0  0  0  0
   -0.3796    0.9344   -1.8653 H   0  0  0  0  0  0  0  0  0  0  0  0
   -1.8320   -1.4630   -0.4304 H   0  0  0  0  0  0  0  0  0  0  0  0
    0.4099   -2.5213    0.0388 H   0  0  0  0  0  0  0  0  0  0  0  0
    1.2676    0.0486    1.2256 H   0  0  0  0  0  0  0  0  0  0  0  0
    2.0088   -1.5266    1.2758 H   0  0  0  0  0  0  0  0  0  0  0  0
  1 11  1  0
  8  9  3  0
  5  6  1  0
  4  5  1  0
  7 17  1  0
  7  8  1  0
  2 13  1  0
  1 10  1  0
  1  2  1  0
  1 12  1  0
  6  7  1  0
  7 18  1  0
  2  4  1  0
  2  3  1  0
  4  6  1  0
  6 16  1  0
  4 15  1  0
  3 14  1  0
M  END
$$$$

     RDKit          3D

 17 17  0  0  0  0  0  0  0  0999 V2000
   -0.2195   -1.3914   -1.1935 C   0  0  0  0  0  0  0  0  0  0  0  0
   -0.6791   -0.0002   -0.7664 C   0  0  0  0  0  0  0  0  0  0  0  0
   -1.5199   -0.0602    0.4601 N   0  0  0  0  0  0  0  0  0  0  0  0
   -0.3951    0.4986    1.2723 C   0  0  0  0  0  0  0  0  0  0  0  0
    0.2879   -0.5197    2.0640 C   0  0  0  0  0  0  0  0  0  0  0  0
    0.8347   -1.3057    2.7256 N   0  0  0  0  0  0  0  0  0  0  0  0
    0.2482    1.0125   -0.0410 C   0  0  0  0  0  0  0  0  0  0  0  0
    1.6646    0.6674   -0.2080 N   0  0  0  0  0  0  0  0  0  0  0  0
    0.1652   -1.9812   -0.3519 H   0  0  0  0  0  0  0  0  0  0  0  0
    0.5855   -1.3217   -1.9437 H   0  0  0  0  0  0  0  0  0  0  0  0
   -1.0470   -1.9520   -1.6444 H   0  0  0  0  0  0  0  0  0  0  0  0
   -1.2033    0.4654   -1.6174 H   0  0  0  0  0  0  0  0  0  0  0  0
   -2.3222    0.5635    0.4288 H   0  0  0  0  0  0  0  0  0  0  0  0
   -0.7293    1.3266    1.9115 H   0  0  0  0  0  0  0  0  0  0  0  0
    0.0211    2.0583   -0.2664 H   0  0  0  0  0  0  0  0  0  0  0  0
    2.3175    1.2267    0.3446 H   0  0  0  0  0  0  0  0  0  0  0  0
    1.9907    0.7130   -1.1742 H   0  0  0  0  0  0  0  0  0  0  0  0
  3 13  1  0
  1 10  1  0
  2  3  1  0
  3  4  1  0
  1  9  1  0
  1  2  1  0
  1 11  1  0
  2 12  1  0
  2  7  1  0
  4 14  1  0
  4  5  1  0
  4  7  1  0
  5  6  3  0
  7  8  1  0
  7 15  1  0
  8 17  1  0
  8 16  1  0
M  END
$$$$

     RDKit          3D

 21 22  0  0  0  0  0  0  0  0999 V2000
    0.3210   -2.6914    0.4360 O   0  0  0  0  0  0  0  0  0  0  0  0
   -0.9407   -1.9652    0.1226 C   0  0  0  0  0  0  0  0  0  0  0  0
   -0.8828   -1.1896   -1.2396 C   0  0  0  0  0  0  0  0  0  0  0  0
   -0.4893    0.1776   -0.5222 C   0  0  0  0  0  0  0  0  0  0  0  0
   -1.3732    1.3088   -0.8084 O   0  0  0  0  0  0  0  0  0  0  0  0
   -1.0371   -0.5311    0.8300 C   0  0  0  0  0  0  0  0  0  0  0  0
    1.0429    0.6571   -0.3398 C   0  0  0  0  0  0  0  0  0  0  0  0
    1.5729    2.1283   -0.2853 C   0  0  0  0  0  0  0  0  0  0  0  0
    1.2532    1.4049    1.0192 C   0  0  0  0  0  0  0  0  0  0  0  0
    0.2001   -2.9595    1.3856 H   0  0  0  0  0  0  0  0  0  0  0  0
   -1.8431   -2.5548    0.5138 H   0  0  0  0  0  0  0  0  0  0  0  0
   -0.1072   -1.6369   -1.8824 H   0  0  0  0  0  0  0  0  0  0  0  0
   -1.8298   -1.1676   -1.8154 H   0  0  0  0  0  0  0  0  0  0  0  0
   -1.0349    1.6412   -1.6790 H   0  0  0  0  0  0  0  0  0  0  0  0
   -2.1087   -0.2324    0.9791 H   0  0  0  0  0  0  0  0  0  0  0  0
   -0.4614   -0.3782    1.7754 H   0  0  0  0  0  0  0  0  0  0  0  0
    1.7139   -0.1771   -0.5621 H   0  0  0  0  0  0  0  0  0  0  0  0
    2.5809    2.3177   -0.5498 H   0  0  0  0  0  0  0  0  0  0  0  0
    1.0120    3.0444   -0.4586 H   0  0  0  0  0  0  0  0  0  0  0  0
    2.1831    1.1746    1.5848 H   0  0  0  0  0  0  0  0  0  0  0  0
    0.2282    1.6292    1.4962 H   0  0  0  0  0  0  0  0  0  0  0  0
  2 11  1  0
  6 15  1  0
  6 16  1  0
  2  6  1  0
  4  6  1  0
  1  2  1  0
  2  3  1  0
  1 10  1  0
  3 12  1  0
  3  4  1  0
  3 13  1  0
  4  5  1  0
  4  7  1  0
  5 14  1  0
  7 17  1  0
  7  9  1  0
  7  8  1  0
  9 20  1  0
  9 21  1  0
  8  9  1  0
  8 19  1  0
  8 18  1  0
M  END
$$$$

     RDKit          3D

 15 15  0  0  0  0  0  0  0  0999 V2000
   -1.7778   -0.2111    0.6217 C   0  0  0  0  0  0  0  0  0  0  0  0
   -0.7836   -0.0931   -0.4305 N   0  0  0  0  0  0  0  0  0  0  0  0
   -1.2218    0.0176   -1.7390 C   0  0  0  0  0  0  0  0  0  0  0  0
   -2.3944    0.0021   -2.0982 O   0  0  0  0  0  0  0  0  0  0  0  0
    0.5757    0.0251   -0.1648 C   0  0  0  0  0  0  0  0  0  0  0  0
    1.1965    0.0198    1.0668 C   0  0  0  0  0  0  0  0  0  0  0  0
    2.5191    0.1869    0.7702 N   0  0  0  0  0  0  0  0  0  0  0  0
    2.7182    0.2696   -0.5518 N   0  0  0  0  0  0  0  0  0  0  0  0
    1.5311    0.1797   -1.1378 N   0  0  0  0  0  0  0  0  0  0  0  0
   -2.0301    0.7987    0.9774 H   0  0  0  0  0  0  0  0  0  0  0  0
   -1.3953   -0.8180    1.4514 H   0  0  0  0  0  0  0  0  0  0  0  0
   -2.6908   -0.6924    0.2442 H   0  0  0  0  0  0  0  0  0  0  0  0
   -0.4122    0.1238   -2.4785 H   0  0  0  0  0  0  0  0  0  0  0  0
    0.8424   -0.0583    2.0821 H   0  0  0  0  0  0  0  0  0  0  0  0
    3.3229    0.2498    1.3867 H   0  0  0  0  0  0  0  0  0  0  0  0
  7 15  1  0
  7  8  1  0
  6  7  1  0
  6 14  1  0
  8  9  2  0
  5  6  2  0
  5  9  1  0
  2  5  1  0
  1 11  1  0
  1 10  1  0
  1  2  1  0
  2  3  1  0
  1 12  1  0
  3 13  1  0
  3  4  2  0
M  END
$$$$

     RDKit          3D

 20 20  0  0  0  0  0  0  0  0999 V2000
   -0.1483    0.1470    2.7419 C   0  0  0  0  0  0  0  0  0  0  0  0
   -0.8596   -0.1062    1.5389 O   0  0  0  0  0  0  0  0  0  0  0  0
   -0.4088    0.7057    0.4519 C   0  0  0  0  0  0  0  0  0  0  0  0
   -1.6425    1.3825   -0.1355 C   0  0  0  0  0  0  0  0  0  0  0  0
    0.2904   -0.2034   -0.5185 C   0  0  0  0  0  0  0  0  0  0  0  0
    0.9943   -1.3784   -0.3074 C   0  0  0  0  0  0  0  0  0  0  0  0
    1.4864   -1.8293   -1.5547 C   0  0  0  0  0  0  0  0  0  0  0  0
    1.0798   -0.9191   -2.5040 C   0  0  0  0  0  0  0  0  0  0  0  0
    0.3615    0.0611   -1.8710 N   0  0  0  0  0  0  0  0  0  0  0  0
    0.9200   -0.0528    2.6093 H   0  0  0  0  0  0  0  0  0  0  0  0
   -0.3062    1.1804    3.0669 H   0  0  0  0  0  0  0  0  0  0  0  0
   -0.5357   -0.5217    3.5160 H   0  0  0  0  0  0  0  0  0  0  0  0
    0.2925    1.4756    0.7946 H   0  0  0  0  0  0  0  0  0  0  0  0
   -1.3744    2.0883   -0.9287 H   0  0  0  0  0  0  0  0  0  0  0  0
   -2.1819    1.9351    0.6426 H   0  0  0  0  0  0  0  0  0  0  0  0
   -2.3479    0.6479   -0.5433 H   0  0  0  0  0  0  0  0  0  0  0  0
    1.1305   -1.8607    0.6529 H   0  0  0  0  0  0  0  0  0  0  0  0
    2.0688   -2.7220   -1.7419 H   0  0  0  0  0  0  0  0  0  0  0  0
    1.2372   -0.8884   -3.5745 H   0  0  0  0  0  0  0  0  0  0  0  0
   -0.0561    0.8584   -2.3358 H   0  0  0  0  0  0  0  0  0  0  0  0
  4 16  1  0
  4 14  1  0
  4 15  1  0
  3  4  1  0
  6 17  1  0
  1 11  1  0
  3 13  1  0
  3  5  1  0
  2  3  1  0
  5  6  2  0
  6  7  1  0
  1 12  1  0
  1  2  1  0
  1 10  1  0
  5  9  1  0
  7 18  1  0
  7  8  2  0
  8  9  1  0
  9 20  1  0
  8 19  1  0
M  END
$$$$

     RDKit          3D

 12 12  0  0  0  0  0  0  0  0999 V2000
    1.5190    1.0147    0.4537 N   0  0  0  0  0  0  0  0  0  0  0  0
    0.1708    0.7076    0.4030 C   0  0  0  0  0  0  0  0  0  0  0  0
   -0.4742   -0.1907   -0.3130 C   0  0  0  0  0  0  0  0  0  0  0  0
   -1.8190   -0.2278   -0.0532 O   0  0  0  0  0  0  0  0  0  0  0  0
   -1.9082    0.8459    0.8409 C   0  0  0  0  0  0  0  0  0  0  0  0
   -2.9793    1.1892    1.3156 O   0  0  0  0  0  0  0  0  0  0  0  0
   -0.7021    1.4532    1.1661 O   0  0  0  0  0  0  0  0  0  0  0  0
    0.1583   -1.1714   -1.1166 C   0  0  0  0  0  0  0  0  0  0  0  0
    0.7563   -2.0546   -1.6783 C   0  0  0  0  0  0  0  0  0  0  0  0
    2.0408    0.5029   -0.2830 H   0  0  0  0  0  0  0  0  0  0  0  0
    1.8975    0.7820    1.3766 H   0  0  0  0  0  0  0  0  0  0  0  0
    1.3401   -2.8509   -2.1117 H   0  0  0  0  0  0  0  0  0  0  0  0
  1  2  1  0
  1 10  1  0
  1 11  1  0
  2  3  2  0
  2  7  1  0
  3  4  1  0
  3  8  1  0
  4  5  1  0
  5  6  2  0
  5  7  1  0
  8  9  3  0
  9 12  1  0
M  END
$$$$

     RDKit          3D

 18 21  0  0  0  0  0  0  0  0999 V2000
   -1.6716    0.4334   -1.0690 C   0  0  0  0  0  0  0  0  0  0  0  0
   -0.4615    0.0822   -0.3009 C   0  0  0  0  0  0  0  0  0  0  0  0
    0.5801    0.9509    0.2726 C   0  0  0  0  0  0  0  0  0  0  0  0
    1.4842    0.4267   -0.9098 C   0  0  0  0  0  0  0  0  0  0  0  0
    0.6837   -0.7540   -0.8756 N   0  0  0  0  0  0  0  0  0  0  0  0
    0.9097   -1.1121    0.9113 C   0  0  0  0  0  0  0  0  0  0  0  0
    0.6105    0.2298    1.5794 C   0  0  0  0  0  0  0  0  0  0  0  0
   -0.8819   -0.5273    2.1904 O   0  0  0  0  0  0  0  0  0  0  0  0
   -0.6858   -1.0135    0.7187 C   0  0  0  0  0  0  0  0  0  0  0  0
   -1.7230   -0.0900   -2.0604 H   0  0  0  0  0  0  0  0  0  0  0  0
   -2.5278    0.0532   -0.4532 H   0  0  0  0  0  0  0  0  0  0  0  0
   -1.7842    1.5188   -1.2208 H   0  0  0  0  0  0  0  0  0  0  0  0
    0.6692    2.1436    0.2283 H   0  0  0  0  0  0  0  0  0  0  0  0
    2.4527   -0.1970   -1.3932 H   0  0  0  0  0  0  0  0  0  0  0  0
    1.0774    1.2821   -1.7704 H   0  0  0  0  0  0  0  0  0  0  0  0
    1.3838   -2.0167    1.4076 H   0  0  0  0  0  0  0  0  0  0  0  0
    1.0728    0.6250    2.4480 H   0  0  0  0  0  0  0  0  0  0  0  0
   -1.1883   -2.0352    0.2969 H   0  0  0  0  0  0  0  0  0  0  0  0
  3 13  1  0
  7 17  1  0
  3  7  1  0
  3  4  1  0
  2  3  1  0
  7  8  1  0
  6  7  1  0
  8  9  1  0
  1 11  1  0
  4 15  1  0
  4 14  1  0
  4  5  1  0
  1 10  1  0
  1  2  1  0
  2  9  1  0
  2  5  1  0
  1 12  1  0
  6  9  1  0
  9 18  1  0
  5  6  1  0
  6 16  1  0
M  END
$$$$

     RDKit          3D

 13 13  0  0  0  0  0  0  0  0999 V2000
    2.4029   -0.6656    0.6537 N   0  0  0  0  0  0  0  0  0  0  0  0
    1.9022    0.5140    0.8046 C   0  0  0  0  0  0  0  0  0  0  0  0
    0.6684    0.9805    0.4442 N   0  0  0  0  0  0  0  0  0  0  0  0
   -0.3683    0.2916   -0.0755 C   0  0  0  0  0  0  0  0  0  0  0  0
   -1.6259    0.6557   -0.5020 C   0  0  0  0  0  0  0  0  0  0  0  0
   -2.3184   -0.4518   -0.9345 N   0  0  0  0  0  0  0  0  0  0  0  0
   -1.4685   -1.4348   -0.7489 C   0  0  0  0  0  0  0  0  0  0  0  0
   -0.2536   -1.0687   -0.2480 O   0  0  0  0  0  0  0  0  0  0  0  0
    1.6900   -1.2615    0.2084 H   0  0  0  0  0  0  0  0  0  0  0  0
    2.5231    1.3038    1.2720 H   0  0  0  0  0  0  0  0  0  0  0  0
    0.5309    1.9817    0.5854 H   0  0  0  0  0  0  0  0  0  0  0  0
   -2.0662    1.6379   -0.5232 H   0  0  0  0  0  0  0  0  0  0  0  0
   -1.6167   -2.4827   -0.9363 H   0  0  0  0  0  0  0  0  0  0  0  0
  5 12  1  0
  1  9  1  0
  1  2  2  3
  5  6  1  0
  4  5  2  0
  6  7  2  0
  2 10  1  0
  2  3  1  0
  3  4  1  0
  4  8  1  0
  7 13  1  0
  7  8  1  0
  3 11  1  0
M  END
$$$$

     RDKit          3D

 22 23  0  0  0  0  0  0  0  0999 V2000
    1.9578   -0.2453   -0.9306 C   0  0  0  0  0  0  0  0  0  0  0  0
    0.9580    0.0911    0.2111 C   0  0  0  0  0  0  0  0  0  0  0  0
    0.5089   -1.1768    0.8322 C   0  0  0  0  0  0  0  0  0  0  0  0
   -0.6757   -1.7945    0.0515 C   0  0  0  0  0  0  0  0  0  0  0  0
   -1.6500   -0.8898   -0.7045 C   0  0  0  0  0  0  0  0  0  0  0  0
   -1.3694    0.4280   -0.7791 C   0  0  0  0  0  0  0  0  0  0  0  0
   -0.1905    0.9463   -0.1401 C   0  0  0  0  0  0  0  0  0  0  0  0
   -0.4912    1.8767    1.0378 C   0  0  0  0  0  0  0  0  0  0  0  0
    0.0054    2.3923   -0.2074 N   0  0  0  0  0  0  0  0  0  0  0  0
    1.7057    0.6568   -1.4858 H   0  0  0  0  0  0  0  0  0  0  0  0
    2.9254   -0.3494   -0.4018 H   0  0  0  0  0  0  0  0  0  0  0  0
    1.6442   -1.3084   -1.3332 H   0  0  0  0  0  0  0  0  0  0  0  0
    1.5834    0.5148    0.9380 H   0  0  0  0  0  0  0  0  0  0  0  0
    0.2276   -1.0374    1.8780 H   0  0  0  0  0  0  0  0  0  0  0  0
    1.2895   -2.0180    0.9402 H   0  0  0  0  0  0  0  0  0  0  0  0
   -0.3160   -2.5594   -0.6114 H   0  0  0  0  0  0  0  0  0  0  0  0
   -1.3772   -2.3261    0.7612 H   0  0  0  0  0  0  0  0  0  0  0  0
   -2.4964   -1.2597   -1.2154 H   0  0  0  0  0  0  0  0  0  0  0  0
   -2.0983    1.1265   -1.2075 H   0  0  0  0  0  0  0  0  0  0  0  0
   -1.5793    2.0901    1.1441 H   0  0  0  0  0  0  0  0  0  0  0  0
    0.2231    1.9694    1.9457 H   0  0  0  0  0  0  0  0  0  0  0  0
   -0.7852    2.8729   -0.7231 H   0  0  0  0  0  0  0  0  0  0  0  0
  3 15  1  0
  4 16  1  0
  4 17  1  0
  3  4  1  0
  4  5  1  0
  3 14  1  0
  2  3  1  0
  1 11  1  0
  2 13  1  0
  1  2  1  0
  2  7  1  0
  1 10  1  0
  1 12  1  0
  5 18  1  0
  5  6  2  0
  6  7  1  0
  6 19  1  0
  7  9  1  0
  7  8  1  0
  9 22  1  0
  8  9  1  0
  8 21  1  0
  8 20  1  0
M  END
$$$$

     RDKit          3D

 14 16  0  0  0  0  0  0  0  0999 V2000
   -1.2375   -2.9181    0.8126 N   0  0  0  0  0  0  0  0  0  0  0  0
   -0.8336   -1.8583    0.5699 C   0  0  0  0  0  0  0  0  0  0  0  0
   -0.3482   -0.5720    0.2637 C   0  0  0  0  0  0  0  0  0  0  0  0
   -0.4134    0.5571    1.2148 C   0  0  0  0  0  0  0  0  0  0  0  0
    1.0418    0.5377    1.2025 O   0  0  0  0  0  0  0  0  0  0  0  0
    1.0457   -0.2236   -0.0467 C   0  0  0  0  0  0  0  0  0  0  0  0
    0.9373    0.7399   -1.2431 C   0  0  0  0  0  0  0  0  0  0  0  0
   -0.4057    1.3142   -1.1831 O   0  0  0  0  0  0  0  0  0  0  0  0
   -1.1430    0.6173   -0.1265 C   0  0  0  0  0  0  0  0  0  0  0  0
   -0.9591    0.4410    2.1412 H   0  0  0  0  0  0  0  0  0  0  0  0
    1.8365   -0.9747   -0.0696 H   0  0  0  0  0  0  0  0  0  0  0  0
    1.0277    0.2045   -2.1929 H   0  0  0  0  0  0  0  0  0  0  0  0
    1.6744    1.5465   -1.1964 H   0  0  0  0  0  0  0  0  0  0  0  0
   -2.2229    0.5884   -0.1464 H   0  0  0  0  0  0  0  0  0  0  0  0
  7 13  1  0
  7  8  1  0
  8  9  1  0
  7 12  1  0
  6  7  1  0
  9 14  1  0
  3  9  1  0
  4  9  1  0
  3  6  1  0
  6 11  1  0
  5  6  1  0
  2  3  1  0
  3  4  1  0
  1  2  3  0
  4  5  1  0
  4 10  1  0
M  END
$$$$

     RDKit          3D

 20 19  0  0  0  0  0  0  0  0999 V2000
    0.5228    1.3766   -0.6836 C   0  0  0  0  0  0  0  0  0  0  0  0
    0.4726   -0.0735   -0.1682 C   0  0  0  0  0  0  0  0  0  0  0  0
    1.2120   -0.9665   -1.1859 C   0  0  0  0  0  0  0  0  0  0  0  0
    1.2149   -0.1582    1.1780 C   0  0  0  0  0  0  0  0  0  0  0  0
   -0.9905   -0.5836   -0.0233 C   0  0  0  0  0  0  0  0  0  0  0  0
   -1.6629   -0.5053   -1.2814 O   0  0  0  0  0  0  0  0  0  0  0  0
   -1.7841    0.1568    0.9757 C   0  0  0  0  0  0  0  0  0  0  0  0
   -2.4481    0.7472    1.7828 C   0  0  0  0  0  0  0  0  0  0  0  0
    0.0357    2.0729    0.0089 H   0  0  0  0  0  0  0  0  0  0  0  0
    0.0278    1.4765   -1.6556 H   0  0  0  0  0  0  0  0  0  0  0  0
    1.5570    1.7138   -0.8109 H   0  0  0  0  0  0  0  0  0  0  0  0
    1.2005   -2.0200   -0.8762 H   0  0  0  0  0  0  0  0  0  0  0  0
    0.7615   -0.9059   -2.1870 H   0  0  0  0  0  0  0  0  0  0  0  0
    2.2624   -0.6669   -1.2782 H   0  0  0  0  0  0  0  0  0  0  0  0
    0.8389    0.5799    1.8995 H   0  0  0  0  0  0  0  0  0  0  0  0
    1.1007   -1.1528    1.6297 H   0  0  0  0  0  0  0  0  0  0  0  0
    2.2910    0.0314    1.0512 H   0  0  0  0  0  0  0  0  0  0  0  0
   -0.9767   -1.6453    0.2545 H   0  0  0  0  0  0  0  0  0  0  0  0
   -2.5906   -0.7529   -1.1173 H   0  0  0  0  0  0  0  0  0  0  0  0
   -3.0451    1.2760    2.4872 H   0  0  0  0  0  0  0  0  0  0  0  0
  5 18  1  0
  8 20  1  0
  7  8  3  0
  5  7  1  0
  5  6  1  0
  6 19  1  0
  2  5  1  0
  4 15  1  0
  1 10  1  0
  1  9  1  0
  1  2  1  0
  1 11  1  0
  2  4  1  0
  4 16  1  0
  4 17  1  0
  2  3  1  0
  3 14  1  0
  3 13  1  0
  3 12  1  0
M  END
$$$$

     RDKit          3D

 12 12  0  0  0  0  0  0  0  0999 V2000
   -2.8103   -0.5186    0.6930 F   0  0  0  0  0  0  0  0  0  0  0  0
   -1.5040   -0.2184    0.6706 C   0  0  0  0  0  0  0  0  0  0  0  0
   -0.8405   -0.2991   -0.5220 C   0  0  0  0  0  0  0  0  0  0  0  0
    0.4904    0.0254   -0.4509 C   0  0  0  0  0  0  0  0  0  0  0  0
    1.3294   -0.0186   -1.6649 C   0  0  0  0  0  0  0  0  0  0  0  0
    0.8791   -0.3396   -2.7584 O   0  0  0  0  0  0  0  0  0  0  0  0
    1.1282    0.3972    0.6791 N   0  0  0  0  0  0  0  0  0  0  0  0
    0.3651    0.4361    1.7775 C   0  0  0  0  0  0  0  0  0  0  0  0
   -0.9371    0.1436    1.8343 N   0  0  0  0  0  0  0  0  0  0  0  0
   -1.3342   -0.5946   -1.4357 H   0  0  0  0  0  0  0  0  0  0  0  0
    2.3887    0.2555   -1.5274 H   0  0  0  0  0  0  0  0  0  0  0  0
    0.8452    0.7312    2.7049 H   0  0  0  0  0  0  0  0  0  0  0  0
  1  2  1  0
  2  3  2  0
  2  9  1  0
  3  4  1  0
  3 10  1  0
  4  5  1  0
  4  7  2  0
  5  6  2  0
  5 11  1  0
  7  8  1  0
  8  9  2  0
  8 12  1  0
M  END
$$$$

     RDKit          3D

 19 21  0  0  0  0  0  0  0  0999 V2000
   -1.7140    0.4794   -0.8672 C   0  0  0  0  0  0  0  0  0  0  0  0
   -0.4095    0.0738   -1.6048 C   0  0  0  0  0  0  0  0  0  0  0  0
    0.7486    0.6089   -0.8316 C   0  0  0  0  0  0  0  0  0  0  0  0
    0.7535    0.8909    0.7685 C   0  0  0  0  0  0  0  0  0  0  0  0
   -0.3227    0.2329    1.7636 C   0  0  0  0  0  0  0  0  0  0  0  0
    0.9162   -0.4459    1.3758 C   0  0  0  0  0  0  0  0  0  0  0  0
    0.8038   -1.6043    0.2213 C   0  0  0  0  0  0  0  0  0  0  0  0
    0.9302   -2.8084    0.3887 O   0  0  0  0  0  0  0  0  0  0  0  0
    0.6658   -0.9157   -1.1116 C   0  0  0  0  0  0  0  0  0  0  0  0
   -1.4341    1.4479   -0.2688 H   0  0  0  0  0  0  0  0  0  0  0  0
   -1.9832   -0.3983   -0.3832 H   0  0  0  0  0  0  0  0  0  0  0  0
   -2.6051    1.0383   -1.1846 H   0  0  0  0  0  0  0  0  0  0  0  0
   -0.7657   -0.5281   -2.5657 H   0  0  0  0  0  0  0  0  0  0  0  0
    1.5683    1.1093   -1.3846 H   0  0  0  0  0  0  0  0  0  0  0  0
    1.3145    1.7198    1.1451 H   0  0  0  0  0  0  0  0  0  0  0  0
   -1.2938    0.7347    1.5389 H   0  0  0  0  0  0  0  0  0  0  0  0
   -0.4064    0.3148    2.8995 H   0  0  0  0  0  0  0  0  0  0  0  0
    1.8134   -0.6403    1.9869 H   0  0  0  0  0  0  0  0  0  0  0  0
    1.4202   -1.3097   -1.8864 H   0  0  0  0  0  0  0  0  0  0  0  0
  5 16  1  0
  4 15  1  0
  4  5  1  0
  5 17  1  0
  5  6  1  0
  4  6  1  0
  3  4  1  0
  6 18  1  0
  6  7  1  0
  3 14  1  0
  2  3  1  0
  3  9  1  0
  1 11  1  0
  7  9  1  0
  7  8  2  0
  1  2  1  0
  2  9  1  0
  2 13  1  0
  1 10  1  0
  1 12  1  0
  9 19  1  0
M  END
$$$$

     RDKit          3D

 20 20  0  0  0  0  0  0  0  0999 V2000
   -1.3020   -0.4919    1.1221 C   0  0  0  0  0  0  0  0  0  0  0  0
   -0.5386    0.5883    0.3217 C   0  0  0  0  0  0  0  0  0  0  0  0
    0.6249    1.1405    1.1514 C   0  0  0  0  0  0  0  0  0  0  0  0
    0.8871    2.4698    0.7434 O   0  0  0  0  0  0  0  0  0  0  0  0
   -0.0968    0.2153   -1.0618 C   0  0  0  0  0  0  0  0  0  0  0  0
   -0.4493   -1.0743   -1.7533 C   0  0  0  0  0  0  0  0  0  0  0  0
    0.9903   -0.7905   -1.3882 C   0  0  0  0  0  0  0  0  0  0  0  0
    1.5387   -1.5302   -0.2961 O   0  0  0  0  0  0  0  0  0  0  0  0
   -1.7618    0.0533    1.9894 H   0  0  0  0  0  0  0  0  0  0  0  0
   -2.1253   -0.9213    0.5238 H   0  0  0  0  0  0  0  0  0  0  0  0
   -0.6747   -1.2997    1.5364 H   0  0  0  0  0  0  0  0  0  0  0  0
   -1.2420    1.4175    0.1718 H   0  0  0  0  0  0  0  0  0  0  0  0
    1.5399    0.5538    1.0656 H   0  0  0  0  0  0  0  0  0  0  0  0
    0.3180    1.1888    2.1986 H   0  0  0  0  0  0  0  0  0  0  0  0
    1.4458    2.8694    1.4230 H   0  0  0  0  0  0  0  0  0  0  0  0
   -0.0928    1.1183   -1.6676 H   0  0  0  0  0  0  0  0  0  0  0  0
   -0.7066   -1.0649   -2.8220 H   0  0  0  0  0  0  0  0  0  0  0  0
   -0.9004   -1.9208   -1.2483 H   0  0  0  0  0  0  0  0  0  0  0  0
    1.6665   -0.4722   -2.1927 H   0  0  0  0  0  0  0  0  0  0  0  0
    0.8791   -2.0493    0.1827 H   0  0  0  0  0  0  0  0  0  0  0  0
  4 15  1  0
  3  4  1  0
  3 14  1  0
  3 13  1  0
  2  3  1  0
  1 10  1  0
  2 12  1  0
  1  2  1  0
  2  5  1  0
  1  9  1  0
  1 11  1  0
  8 20  1  0
  7  8  1  0
  5 16  1  0
  5  7  1  0
  5  6  1  0
  7 19  1  0
  6  7  1  0
  6 18  1  0
  6 17  1  0
M  END
$$$$

     RDKit          3D

 19 20  0  0  0  0  0  0  0  0999 V2000
   -0.4155    1.9099   -1.4871 C   0  0  0  0  0  0  0  0  0  0  0  0
   -0.2312    0.5478   -0.9245 C   0  0  0  0  0  0  0  0  0  0  0  0
    1.1216   -0.0673   -0.8236 C   0  0  0  0  0  0  0  0  0  0  0  0
    1.0271   -1.1506    0.2690 C   0  0  0  0  0  0  0  0  0  0  0  0
   -0.3833   -1.0737    0.8992 C   0  0  0  0  0  0  0  0  0  0  0  0
   -0.2877   -0.7426    2.3662 C   0  0  0  0  0  0  0  0  0  0  0  0
   -1.0570    0.0272    2.9458 O   0  0  0  0  0  0  0  0  0  0  0  0
   -1.1335   -0.0479    0.0963 C   0  0  0  0  0  0  0  0  0  0  0  0
   -1.2783   -0.3747   -1.2911 O   0  0  0  0  0  0  0  0  0  0  0  0
    0.3998    2.5681   -1.1616 H   0  0  0  0  0  0  0  0  0  0  0  0
   -0.3965    1.8712   -2.5822 H   0  0  0  0  0  0  0  0  0  0  0  0
   -1.3684    2.3548   -1.1515 H   0  0  0  0  0  0  0  0  0  0  0  0
    1.8720    0.6797   -0.5331 H   0  0  0  0  0  0  0  0  0  0  0  0
    1.4216   -0.5155   -1.7775 H   0  0  0  0  0  0  0  0  0  0  0  0
    1.8376   -1.0233    0.9989 H   0  0  0  0  0  0  0  0  0  0  0  0
    1.1791   -2.1366   -0.1885 H   0  0  0  0  0  0  0  0  0  0  0  0
   -0.8809   -2.0433    0.8174 H   0  0  0  0  0  0  0  0  0  0  0  0
    0.4709   -1.3160    2.9365 H   0  0  0  0  0  0  0  0  0  0  0  0
   -1.8975    0.5328    0.5914 H   0  0  0  0  0  0  0  0  0  0  0  0
  3 14  1  0
  1 11  1  0
  4 16  1  0
  3 13  1  0
  2  3  1  0
  3  4  1  0
  1  2  1  0
  1 10  1  0
  1 12  1  0
  2  9  1  0
  8  9  1  0
  2  8  1  0
  4 15  1  0
  4  5  1  0
  6 18  1  0
  5  8  1  0
  8 19  1  0
  5  6  1  0
  5 17  1  0
  6  7  2  0
M  END
$$$$

     RDKit          3D

 20 19  0  0  0  0  0  0  0  0999 V2000
   -0.9693    0.1226   -1.1105 C   0  0  0  0  0  0  0  0  0  0  0  0
    0.1517    0.1974   -0.1023 C   0  0  0  0  0  0  0  0  0  0  0  0
    0.6885    1.6390   -0.0134 C   0  0  0  0  0  0  0  0  0  0  0  0
   -0.4065    2.4821    0.4455 O   0  0  0  0  0  0  0  0  0  0  0  0
   -0.3320   -0.3347    1.3053 C   0  0  0  0  0  0  0  0  0  0  0  0
   -1.0644   -1.4954    1.2591 O   0  0  0  0  0  0  0  0  0  0  0  0
    1.2834   -0.7836   -0.5502 C   0  0  0  0  0  0  0  0  0  0  0  0
    0.8801   -2.0633   -0.8659 N   0  0  0  0  0  0  0  0  0  0  0  0
    2.3956   -0.3588   -0.8962 O   0  0  0  0  0  0  0  0  0  0  0  0
   -1.4242    1.0956   -1.3329 H   0  0  0  0  0  0  0  0  0  0  0  0
   -0.5168   -0.2201   -2.0455 H   0  0  0  0  0  0  0  0  0  0  0  0
   -1.7013   -0.6246   -0.8822 H   0  0  0  0  0  0  0  0  0  0  0  0
    1.5458    1.6588    0.6781 H   0  0  0  0  0  0  0  0  0  0  0  0
    0.9954    1.9824   -0.9718 H   0  0  0  0  0  0  0  0  0  0  0  0
   -0.2743    2.7014    1.3635 H   0  0  0  0  0  0  0  0  0  0  0  0
    0.5124   -0.3691    1.9701 H   0  0  0  0  0  0  0  0  0  0  0  0
   -0.9819    0.4665    1.8036 H   0  0  0  0  0  0  0  0  0  0  0  0
   -1.4636   -1.6657    2.1089 H   0  0  0  0  0  0  0  0  0  0  0  0
    0.0888   -2.3107   -0.2893 H   0  0  0  0  0  0  0  0  0  0  0  0
    0.5925   -2.1197   -1.8741 H   0  0  0  0  0  0  0  0  0  0  0  0
  7  9  2  0
  8 20  1  0
  7  8  1  0
  2  7  1  0
  8 19  1  0
  1 11  1  0
  5 16  1  0
  5 17  1  0
  1  2  1  0
  1 10  1  0
  1 12  1  0
  2  5  1  0
  2  3  1  0
  5  6  1  0
  3 13  1  0
  3  4  1  0
  3 14  1  0
  6 18  1  0
  4 15  1  0
M  END
$$$$

     RDKit          3D

 19 20  0  0  0  0  0  0  0  0999 V2000
    2.3932    0.5720    0.2620 C   0  0  0  0  0  0  0  0  0  0  0  0
    1.8185   -0.6976    0.5537 O   0  0  0  0  0  0  0  0  0  0  0  0
    0.3939   -0.8048    0.3526 C   0  0  0  0  0  0  0  0  0  0  0  0
   -0.4167    0.0285    1.3328 C   0  0  0  0  0  0  0  0  0  0  0  0
   -1.5254    0.6092    0.5069 C   0  0  0  0  0  0  0  0  0  0  0  0
   -0.9778    0.7659   -0.8540 N   0  0  0  0  0  0  0  0  0  0  0  0
   -1.3878   -0.2785   -1.7173 C   0  0  0  0  0  0  0  0  0  0  0  0
    0.0277   -0.3283   -1.0442 C   0  0  0  0  0  0  0  0  0  0  0  0
    1.8681    1.3384    0.7419 H   0  0  0  0  0  0  0  0  0  0  0  0
    3.4047    0.5663    0.6715 H   0  0  0  0  0  0  0  0  0  0  0  0
    2.3910    0.7117   -0.8375 H   0  0  0  0  0  0  0  0  0  0  0  0
    0.1446   -1.8973    0.4467 H   0  0  0  0  0  0  0  0  0  0  0  0
   -0.7928   -0.5946    2.1561 H   0  0  0  0  0  0  0  0  0  0  0  0
    0.1793    0.8297    1.7945 H   0  0  0  0  0  0  0  0  0  0  0  0
   -1.8428    1.5776    0.9221 H   0  0  0  0  0  0  0  0  0  0  0  0
   -2.4244   -0.0785    0.5906 H   0  0  0  0  0  0  0  0  0  0  0  0
   -2.1332   -1.0115   -1.4551 H   0  0  0  0  0  0  0  0  0  0  0  0
   -1.4084    0.0002   -2.7829 H   0  0  0  0  0  0  0  0  0  0  0  0
    0.2883   -1.3083   -1.6405 H   0  0  0  0  0  0  0  0  0  0  0  0
  5 15  1  0
  8 19  1  0
  3 12  1  0
  5  6  1  0
  6  8  1  0
  6  7  1  0
  5 16  1  0
  4  5  1  0
  3  8  1  0
  7  8  1  0
  4 13  1  0
  3  4  1  0
  2  3  1  0
  4 14  1  0
  1 10  1  0
  7 17  1  0
  7 18  1  0
  1  2  1  0
  1  9  1  0
  1 11  1  0
M  END
$$$$

     RDKit          3D

 20 20  0  0  0  0  0  0  0  0999 V2000
    1.3653    1.9914    0.7743 C   0  0  0  0  0  0  0  0  0  0  0  0
    0.1510    1.1354    1.0674 C   0  0  0  0  0  0  0  0  0  0  0  0
   -0.5164    0.6069   -0.2126 C   0  0  0  0  0  0  0  0  0  0  0  0
   -1.6100   -0.4137    0.1320 C   0  0  0  0  0  0  0  0  0  0  0  0
   -1.0880   -1.7045    0.5018 O   0  0  0  0  0  0  0  0  0  0  0  0
    0.0716   -2.0865   -0.2623 C   0  0  0  0  0  0  0  0  0  0  0  0
    0.2837   -1.2332   -1.5195 C   0  0  0  0  0  0  0  0  0  0  0  0
    0.4941    0.1298   -1.1242 O   0  0  0  0  0  0  0  0  0  0  0  0
    1.2075    2.6792   -0.0847 H   0  0  0  0  0  0  0  0  0  0  0  0
    1.5965    2.6160    1.6543 H   0  0  0  0  0  0  0  0  0  0  0  0
    2.2460    1.3623    0.5868 H   0  0  0  0  0  0  0  0  0  0  0  0
   -0.5953    1.7221    1.6195 H   0  0  0  0  0  0  0  0  0  0  0  0
    0.4442    0.3036    1.7241 H   0  0  0  0  0  0  0  0  0  0  0  0
   -1.0124    1.4551   -0.7076 H   0  0  0  0  0  0  0  0  0  0  0  0
   -2.2602   -0.5501   -0.7320 H   0  0  0  0  0  0  0  0  0  0  0  0
   -2.2440   -0.0608    0.9616 H   0  0  0  0  0  0  0  0  0  0  0  0
    0.9254   -1.9795    0.4168 H   0  0  0  0  0  0  0  0  0  0  0  0
   -0.0348   -3.1470   -0.5232 H   0  0  0  0  0  0  0  0  0  0  0  0
   -0.5882   -1.2505   -2.1918 H   0  0  0  0  0  0  0  0  0  0  0  0
    1.1641   -1.5762   -2.0808 H   0  0  0  0  0  0  0  0  0  0  0  0
  6 17  1  0
  7 20  1  0
  7 19  1  0
  6  7  1  0
  7  8  1  0
  6 18  1  0
  5  6  1  0
  4  5  1  0
  3  8  1  0
  3 14  1  0
  3  4  1  0
  2  3  1  0
  4 16  1  0
  4 15  1  0
  1 10  1  0
  1  2  1  0
  2 13  1  0
  2 12  1  0
  1  9  1  0
  1 11  1  0
M  END
$$$$

     RDKit          3D

 19 20  0  0  0  0  0  0  0  0999 V2000
    1.8072    0.7303    1.2233 C   0  0  0  0  0  0  0  0  0  0  0  0
    0.3945    0.3793    1.3758 N   0  0  0  0  0  0  0  0  0  0  0  0
   -0.4066    1.2492    0.4214 C   0  0  0  0  0  0  0  0  0  0  0  0
   -1.8169    0.3569    0.5194 C   0  0  0  0  0  0  0  0  0  0  0  0
   -2.1826   -0.3943    1.6734 O   0  0  0  0  0  0  0  0  0  0  0  0
   -1.2573   -0.4329   -0.7233 C   0  0  0  0  0  0  0  0  0  0  0  0
    0.0781   -1.2469   -0.8381 C   0  0  0  0  0  0  0  0  0  0  0  0
    0.6471    0.1260   -1.5130 C   0  0  0  0  0  0  0  0  0  0  0  0
   -0.5600    0.8424   -1.0822 N   0  0  0  0  0  0  0  0  0  0  0  0
    1.9906    1.6278    0.6300 H   0  0  0  0  0  0  0  0  0  0  0  0
    2.1939    0.7676    2.2598 H   0  0  0  0  0  0  0  0  0  0  0  0
    2.3030   -0.1051    0.6790 H   0  0  0  0  0  0  0  0  0  0  0  0
   -2.6595    0.9676    0.1936 H   0  0  0  0  0  0  0  0  0  0  0  0
   -1.4419   -0.9799    1.8912 H   0  0  0  0  0  0  0  0  0  0  0  0
   -2.1034   -0.8652   -1.3173 H   0  0  0  0  0  0  0  0  0  0  0  0
    0.5737   -1.6680    0.0611 H   0  0  0  0  0  0  0  0  0  0  0  0
    0.0487   -1.9948   -1.6809 H   0  0  0  0  0  0  0  0  0  0  0  0
    1.6426    0.5452   -1.1705 H   0  0  0  0  0  0  0  0  0  0  0  0
    0.7488    0.0948   -2.6027 H   0  0  0  0  0  0  0  0  0  0  0  0
  6 15  1  0
  4 13  1  0
  4  6  1  0
  4  5  1  0
  3  4  1  0
  6  9  1  0
  6  7  1  0
  5 14  1  0
  7 16  1  0
  3  9  1  0
  8  9  1  0
  7 17  1  0
  7  8  1  0
  2  3  1  0
  1 11  1  0
  8 18  1  0
  8 19  1  0
  1  2  1  0
  1 12  1  0
  1 10  1  0
M  END
$$$$

     RDKit          3D

 17 18  0  0  0  0  0  0  0  0999 V2000
    1.3492    2.9848    1.0286 O   0  0  0  0  0  0  0  0  0  0  0  0
    0.7734    1.8937    0.9257 C   0  0  0  0  0  0  0  0  0  0  0  0
   -0.5128    1.7391    0.0871 C   0  0  0  0  0  0  0  0  0  0  0  0
   -0.6019    0.2372   -0.0455 C   0  0  0  0  0  0  0  0  0  0  0  0
   -0.4803   -0.7250   -1.2225 C   0  0  0  0  0  0  0  0  0  0  0  0
   -0.2665   -2.0779   -0.5375 C   0  0  0  0  0  0  0  0  0  0  0  0
    0.3708   -1.7321    0.6380 C   0  0  0  0  0  0  0  0  0  0  0  0
    0.7612   -0.2413    0.5274 C   0  0  0  0  0  0  0  0  0  0  0  0
    0.9532    0.7130    1.5704 O   0  0  0  0  0  0  0  0  0  0  0  0
   -1.3293    2.0565    0.8013 H   0  0  0  0  0  0  0  0  0  0  0  0
   -0.5596    2.3872   -0.8304 H   0  0  0  0  0  0  0  0  0  0  0  0
   -1.5571   -0.0767    0.5346 H   0  0  0  0  0  0  0  0  0  0  0  0
    0.4324   -0.4276   -1.8461 H   0  0  0  0  0  0  0  0  0  0  0  0
   -1.2604   -0.8627   -1.9694 H   0  0  0  0  0  0  0  0  0  0  0  0
   -0.5175   -3.0812   -0.9309 H   0  0  0  0  0  0  0  0  0  0  0  0
    0.7161   -2.4813    1.3399 H   0  0  0  0  0  0  0  0  0  0  0  0
    1.7289   -0.3057   -0.0706 H   0  0  0  0  0  0  0  0  0  0  0  0
  8 17  1  0
  1  2  2  0
  2  9  1  0
  8  9  1  0
  2  3  1  0
  4 12  1  0
  3 10  1  0
  4  8  1  0
  7  8  1  0
  3  4  1  0
  3 11  1  0
  4  5  1  0
  7 16  1  0
  6  7  2  0
  5 13  1  0
  5  6  1  0
  5 14  1  0
  6 15  1  0
M  END
$$$$

     RDKit          3D

 21 22  0  0  0  0  0  0  0  0999 V2000
    0.6513    0.8148   -2.5230 C   0  0  0  0  0  0  0  0  0  0  0  0
    0.1861   -0.2032   -1.4636 C   0  0  0  0  0  0  0  0  0  0  0  0
    1.3780   -1.0417   -1.0522 C   0  0  0  0  0  0  0  0  0  0  0  0
    1.5956   -0.9328    0.2695 C   0  0  0  0  0  0  0  0  0  0  0  0
    0.6345   -0.0293    0.9389 C   0  0  0  0  0  0  0  0  0  0  0  0
   -0.8519   -0.3945    0.9652 C   0  0  0  0  0  0  0  0  0  0  0  0
   -1.7986    0.2292    1.8821 C   0  0  0  0  0  0  0  0  0  0  0  0
   -1.5563   -0.2559    3.2156 O   0  0  0  0  0  0  0  0  0  0  0  0
   -0.2810    0.4475   -0.1759 C   0  0  0  0  0  0  0  0  0  0  0  0
   -0.2001    1.4320   -2.8670 H   0  0  0  0  0  0  0  0  0  0  0  0
    1.3666    1.5299   -2.0969 H   0  0  0  0  0  0  0  0  0  0  0  0
    1.0525    0.2802   -3.4157 H   0  0  0  0  0  0  0  0  0  0  0  0
   -0.6344   -0.8201   -1.8817 H   0  0  0  0  0  0  0  0  0  0  0  0
    1.8964   -1.7186   -1.7226 H   0  0  0  0  0  0  0  0  0  0  0  0
    2.3649   -1.4421    0.7872 H   0  0  0  0  0  0  0  0  0  0  0  0
    1.0080    0.6933    1.6639 H   0  0  0  0  0  0  0  0  0  0  0  0
   -1.1020   -1.4304    0.7241 H   0  0  0  0  0  0  0  0  0  0  0  0
   -2.8306   -0.0044    1.6103 H   0  0  0  0  0  0  0  0  0  0  0  0
   -1.6794    1.2954    1.9089 H   0  0  0  0  0  0  0  0  0  0  0  0
   -0.6744    0.0467    3.4519 H   0  0  0  0  0  0  0  0  0  0  0  0
   -0.5250    1.5040   -0.2187 H   0  0  0  0  0  0  0  0  0  0  0  0
  3 14  1  0
  1 11  1  0
  3  4  2  0
  2  3  1  0
  4 15  1  0
  1 10  1  0
  1  2  1  0
  1 12  1  0
  4  5  1  0
  2 13  1  0
  2  9  1  0
  7 18  1  0
  7 19  1  0
  7  8  1  0
  6  7  1  0
  5  9  1  0
  5  6  1  0
  5 16  1  0
  8 20  1  0
  6  9  1  0
  9 21  1  0
  6 17  1  0
M  END
$$$$

     RDKit          3D

 19 20  0  0  0  0  0  0  0  0999 V2000
   -2.8467   -1.7658   -0.9439 O   0  0  0  0  0  0  0  0  0  0  0  0
   -2.1465   -1.3447   -0.0287 C   0  0  0  0  0  0  0  0  0  0  0  0
   -0.9337   -1.9809    0.2864 N   0  0  0  0  0  0  0  0  0  0  0  0
    0.3783   -1.3115    0.2278 C   0  0  0  0  0  0  0  0  0  0  0  0
    0.3172    0.0956    0.8173 C   0  0  0  0  0  0  0  0  0  0  0  0
    1.3196    0.8439    0.0415 C   0  0  0  0  0  0  0  0  0  0  0  0
    0.6960    2.1025    0.5040 C   0  0  0  0  0  0  0  0  0  0  0  0
   -0.6453    1.3255    0.1610 N   0  0  0  0  0  0  0  0  0  0  0  0
    0.2880    0.9262   -1.1152 C   0  0  0  0  0  0  0  0  0  0  0  0
   -2.3967   -0.5040    0.6236 H   0  0  0  0  0  0  0  0  0  0  0  0
   -0.9187   -2.8131   -0.2270 H   0  0  0  0  0  0  0  0  0  0  0  0
    0.7784   -1.4996   -0.8025 H   0  0  0  0  0  0  0  0  0  0  0  0
    1.1559   -1.9194    0.7981 H   0  0  0  0  0  0  0  0  0  0  0  0
    0.5599    0.0222    1.9507 H   0  0  0  0  0  0  0  0  0  0  0  0
    2.4307    0.8146    0.0305 H   0  0  0  0  0  0  0  0  0  0  0  0
    0.6409    2.9640   -0.1999 H   0  0  0  0  0  0  0  0  0  0  0  0
    0.8603    2.4520    1.5337 H   0  0  0  0  0  0  0  0  0  0  0  0
    0.7306    1.4667   -1.9252 H   0  0  0  0  0  0  0  0  0  0  0  0
   -0.2681    0.1259   -1.7324 H   0  0  0  0  0  0  0  0  0  0  0  0
  7 16  1  0
  7 17  1  0
  7  8  1  0
  6  7  1  0
  3 11  1  0
  8  9  1  0
  5  8  1  0
  9 19  1  0
  4 13  1  0
  2 10  1  0
  2  3  1  0
  3  4  1  0
  6  9  1  0
  9 18  1  0
  1  2  2  0
  4  5  1  0
  4 12  1  0
  5  6  1  0
  6 15  1  0
  5 14  1  0
M  END
$$$$

     RDKit          3D

 16 16  0  0  0  0  0  0  0  0999 V2000
    1.4551    0.9225    1.7826 O   0  0  0  0  0  0  0  0  0  0  0  0
    1.5355    0.1365    0.5976 C   0  0  0  0  0  0  0  0  0  0  0  0
    0.3064   -0.7530    0.4927 C   0  0  0  0  0  0  0  0  0  0  0  0
    0.2912   -1.5161   -0.7740 N   0  0  0  0  0  0  0  0  0  0  0  0
   -1.0284   -1.2642   -1.0072 C   0  0  0  0  0  0  0  0  0  0  0  0
   -1.7947   -1.8186   -1.7577 O   0  0  0  0  0  0  0  0  0  0  0  0
   -1.0736   -0.1593    0.0772 C   0  0  0  0  0  0  0  0  0  0  0  0
   -1.1252    1.1882   -0.4594 C   0  0  0  0  0  0  0  0  0  0  0  0
   -1.1753    2.3014   -0.9102 C   0  0  0  0  0  0  0  0  0  0  0  0
    0.7640    1.6003    1.6389 H   0  0  0  0  0  0  0  0  0  0  0  0
    2.4399   -0.4742    0.6730 H   0  0  0  0  0  0  0  0  0  0  0  0
    1.6582    0.8005   -0.2632 H   0  0  0  0  0  0  0  0  0  0  0  0
    0.2347   -1.4370    1.3502 H   0  0  0  0  0  0  0  0  0  0  0  0
    0.5970   -2.4674   -0.9367 H   0  0  0  0  0  0  0  0  0  0  0  0
   -1.8553   -0.3421    0.8244 H   0  0  0  0  0  0  0  0  0  0  0  0
   -1.2294    3.2827   -1.3281 H   0  0  0  0  0  0  0  0  0  0  0  0
  5  6  2  0
  4 14  1  0
  4  5  1  0
  5  7  1  0
  3  4  1  0
  2 11  1  0
  1 10  1  0
  1  2  1  0
  2  3  1  0
  2 12  1  0
  3  7  1  0
  3 13  1  0
  7  8  1  0
  7 15  1  0
  8  9  3  0
  9 16  1  0
M  END
$$$$

     RDKit          3D

 19 22  0  0  0  0  0  0  0  0999 V2000
    0.3838   -1.2823   -1.0647 C   0  0  0  0  0  0  0  0  0  0  0  0
    1.3114   -0.7067   -0.0107 C   0  0  0  0  0  0  0  0  0  0  0  0
    1.2085    0.7410    0.4582 C   0  0  0  0  0  0  0  0  0  0  0  0
    0.1726    1.6981   -0.0992 C   0  0  0  0  0  0  0  0  0  0  0  0
   -1.2063    1.0023    0.0129 C   0  0  0  0  0  0  0  0  0  0  0  0
   -1.5428    0.2778   -1.1978 O   0  0  0  0  0  0  0  0  0  0  0  0
   -1.0669   -0.9661   -0.6246 C   0  0  0  0  0  0  0  0  0  0  0  0
   -0.9588   -0.3231    0.7875 C   0  0  0  0  0  0  0  0  0  0  0  0
    0.4889   -0.3486    1.1863 C   0  0  0  0  0  0  0  0  0  0  0  0
    0.5228   -2.3686   -1.1009 H   0  0  0  0  0  0  0  0  0  0  0  0
    0.6059   -0.8732   -2.0559 H   0  0  0  0  0  0  0  0  0  0  0  0
    2.2459   -1.2341    0.1102 H   0  0  0  0  0  0  0  0  0  0  0  0
    2.0725    1.2130    0.9023 H   0  0  0  0  0  0  0  0  0  0  0  0
    0.4044    1.9771   -1.1317 H   0  0  0  0  0  0  0  0  0  0  0  0
    0.1706    2.6092    0.5082 H   0  0  0  0  0  0  0  0  0  0  0  0
   -2.0324    1.6279    0.3618 H   0  0  0  0  0  0  0  0  0  0  0  0
   -1.7915   -1.7757   -0.7429 H   0  0  0  0  0  0  0  0  0  0  0  0
   -1.7194   -0.6120    1.5139 H   0  0  0  0  0  0  0  0  0  0  0  0
    0.7310   -0.6561    2.1872 H   0  0  0  0  0  0  0  0  0  0  0  0
  1 11  1  0
  7 17  1  0
  9 19  1  0
  2 12  1  0
  1  7  1  0
  1  2  1  0
  1 10  1  0
  8 18  1  0
  7  8  1  0
  6  7  1  0
  2  9  1  0
  2  3  1  0
  8  9  1  0
  3  9  1  0
  5  8  1  0
  3 13  1  0
  3  4  1  0
  5  6  1  0
  5 16  1  0
  4  5  1  0
  4 15  1  0
  4 14  1  0
M  END
$$$$

     RDKit          3D

 16 16  0  0  0  0  0  0  0  0999 V2000
   -1.1020   -2.0299    0.3121 N   0  0  0  0  0  0  0  0  0  0  0  0
    2.3766    0.7169   -0.6795 H   0  0  0  0  0  0  0  0  0  0  0  0
   -1.2137   -2.8656   -0.2634 H   0  0  0  0  0  0  0  0  0  0  0  0
   -1.8472   -2.0881    1.0061 H   0  0  0  0  0  0  0  0  0  0  0  0
   -1.2445   -0.8371   -0.5155 C   0  0  0  0  0  0  0  0  0  0  0  0
    0.0810   -0.1454   -0.4987 C   0  0  0  0  0  0  0  0  0  0  0  0
    0.1544    1.2676   -0.9065 N   0  0  0  0  0  0  0  0  0  0  0  0
    0.3773    0.9560    0.5309 C   0  0  0  0  0  0  0  0  0  0  0  0
    1.7168    1.3300    1.0359 C   0  0  0  0  0  0  0  0  0  0  0  0
    1.8626    1.8915    2.1181 O   0  0  0  0  0  0  0  0  0  0  0  0
    2.7446    1.0591    0.1745 O   0  0  0  0  0  0  0  0  0  0  0  0
   -1.5110   -1.1157   -1.5381 H   0  0  0  0  0  0  0  0  0  0  0  0
   -2.0450   -0.2123   -0.0938 H   0  0  0  0  0  0  0  0  0  0  0  0
    0.8743   -0.7857   -0.9011 H   0  0  0  0  0  0  0  0  0  0  0  0
   -0.7893    1.6885   -1.0027 H   0  0  0  0  0  0  0  0  0  0  0  0
   -0.4349    1.1702    1.2217 H   0  0  0  0  0  0  0  0  0  0  0  0
  1  4  1  0
  7 15  1  0
  1  3  1  0
  5 13  1  0
  1  5  1  0
  6  7  1  0
  7  8  1  0
  5  6  1  0
  5 12  1  0
  6 14  1  0
  6  8  1  0
  2 11  1  0
  8 16  1  0
  8  9  1  0
  9 11  1  0
  9 10  2  0
M  END
$$$$

     RDKit          3D

 18 20  0  0  0  0  0  0  0  0999 V2000
    1.0062    1.4139   -0.4144 C   0  0  0  0  0  0  0  0  0  0  0  0
   -0.4833    1.6598   -0.6157 C   0  0  0  0  0  0  0  0  0  0  0  0
   -0.6256    0.1947   -0.3773 C   0  0  0  0  0  0  0  0  0  0  0  0
   -1.2510   -0.3308    0.9085 C   0  0  0  0  0  0  0  0  0  0  0  0
    0.1045   -1.0911    0.8469 C   0  0  0  0  0  0  0  0  0  0  0  0
    0.1567   -1.8549   -0.4843 C   0  0  0  0  0  0  0  0  0  0  0  0
   -0.3515   -0.8408   -1.3407 O   0  0  0  0  0  0  0  0  0  0  0  0
    0.7583    0.3320    0.6699 C   0  0  0  0  0  0  0  0  0  0  0  0
    1.5358    1.0536   -1.3086 H   0  0  0  0  0  0  0  0  0  0  0  0
    1.5551    2.2915   -0.0547 H   0  0  0  0  0  0  0  0  0  0  0  0
   -0.9551    2.3056    0.1321 H   0  0  0  0  0  0  0  0  0  0  0  0
   -0.7562    2.0104   -1.6142 H   0  0  0  0  0  0  0  0  0  0  0  0
   -2.1446   -0.9489    0.7877 H   0  0  0  0  0  0  0  0  0  0  0  0
   -1.3916    0.3655    1.7421 H   0  0  0  0  0  0  0  0  0  0  0  0
    0.3805   -1.6496    1.7437 H   0  0  0  0  0  0  0  0  0  0  0  0
    1.1748   -2.1295   -0.7749 H   0  0  0  0  0  0  0  0  0  0  0  0
   -0.5041   -2.7259   -0.4931 H   0  0  0  0  0  0  0  0  0  0  0  0
    1.7911   -0.0554    0.6472 H   0  0  0  0  0  0  0  0  0  0  0  0
  1 10  1  0
  8 18  1  0
  2 11  1  0
  1  8  1  0
  1  2  1  0
  1  9  1  0
  3  8  1  0
  5  8  1  0
  2 12  1  0
  2  3  1  0
  4 13  1  0
  3  4  1  0
  3  7  1  0
  5 15  1  0
  4  5  1  0
  5  6  1  0
  4 14  1  0
  6  7  1  0
  6 16  1  0
  6 17  1  0
M  END
$$$$

     RDKit          3D

 14 14  0  0  0  0  0  0  0  0999 V2000
   -2.0671    0.8929   -1.7120 N   0  0  0  0  0  0  0  0  0  0  0  0
   -1.1345   -0.1740   -2.0630 C   0  0  0  0  0  0  0  0  0  0  0  0
    0.2044    0.1156   -1.6437 O   0  0  0  0  0  0  0  0  0  0  0  0
    0.3871   -0.1403   -0.3477 C   0  0  0  0  0  0  0  0  0  0  0  0
   -0.2654   -0.9453    0.5571 C   0  0  0  0  0  0  0  0  0  0  0  0
    0.1969   -0.5841    1.8360 C   0  0  0  0  0  0  0  0  0  0  0  0
    1.3042    0.2306    1.6544 C   0  0  0  0  0  0  0  0  0  0  0  0
    1.4217    0.4786    0.3089 N   0  0  0  0  0  0  0  0  0  0  0  0
   -1.7873    1.2657   -0.8032 H   0  0  0  0  0  0  0  0  0  0  0  0
   -1.1338   -0.3178   -3.1508 H   0  0  0  0  0  0  0  0  0  0  0  0
   -1.0757   -1.6278    0.3488 H   0  0  0  0  0  0  0  0  0  0  0  0
   -0.1589   -0.9593    2.7886 H   0  0  0  0  0  0  0  0  0  0  0  0
    2.0017    0.6774    2.3513 H   0  0  0  0  0  0  0  0  0  0  0  0
    2.1068    1.0879   -0.1248 H   0  0  0  0  0  0  0  0  0  0  0  0
  2 10  1  0
  6 12  1  0
  1  9  1  0
  5 11  1  0
  5  6  1  0
  6  7  2  0
  4  5  2  0
  1  2  1  0
  2  3  1  0
  7 13  1  0
  7  8  1  0
  4  8  1  0
  3  4  1  0
  8 14  1  0
M  END
$$$$

     RDKit          3D

 14 15  0  0  0  0  0  0  0  0999 V2000
    1.2503    1.9769   -0.3451 N   0  0  0  0  0  0  0  0  0  0  0  0
    0.5575    0.8625   -0.9610 C   0  0  0  0  0  0  0  0  0  0  0  0
    1.3324   -0.3612   -0.7997 N   0  0  0  0  0  0  0  0  0  0  0  0
    0.2395   -1.0332   -0.0614 C   0  0  0  0  0  0  0  0  0  0  0  0
    0.6606   -1.4832    1.2561 C   0  0  0  0  0  0  0  0  0  0  0  0
    0.9790   -1.8863    2.2997 N   0  0  0  0  0  0  0  0  0  0  0  0
   -0.4895    0.2439   -0.1480 C   0  0  0  0  0  0  0  0  0  0  0  0
   -1.9241    0.5837    0.0227 C   0  0  0  0  0  0  0  0  0  0  0  0
   -0.9518    0.8701    1.0480 O   0  0  0  0  0  0  0  0  0  0  0  0
    1.9760    1.6324    0.3133 H   0  0  0  0  0  0  0  0  0  0  0  0
    1.5713   -0.7984   -1.6851 H   0  0  0  0  0  0  0  0  0  0  0  0
   -0.2487   -1.8195   -0.6416 H   0  0  0  0  0  0  0  0  0  0  0  0
   -2.6252   -0.2144    0.2360 H   0  0  0  0  0  0  0  0  0  0  0  0
   -2.3273    1.4265   -0.5338 H   0  0  0  0  0  0  0  0  0  0  0  0
  1 10  1  0
  1  2  1  0
  7  9  1  0
  8  9  1  0
  2  7  1  0
  2  3  1  0
  4 12  1  0
  7  8  1  0
  4  7  1  0
  3 11  1  0
  8 14  1  0
  3  4  1  0
  8 13  1  0
  4  5  1  0
  5  6  3  0
M  END
$$$$

     RDKit          3D

 16 15  0  0  0  0  0  0  0  0999 V2000
    2.2753    1.8052    2.0041 O   0  0  0  0  0  0  0  0  0  0  0  0
    2.0826    2.0057    0.6107 C   0  0  0  0  0  0  0  0  0  0  0  0
    0.9831    1.1617    0.1399 C   0  0  0  0  0  0  0  0  0  0  0  0
    0.0703    0.4811   -0.2467 C   0  0  0  0  0  0  0  0  0  0  0  0
   -1.0680   -0.3425   -0.7082 C   0  0  0  0  0  0  0  0  0  0  0  0
   -1.0992   -1.6718    0.0610 C   0  0  0  0  0  0  0  0  0  0  0  0
   -2.4024   -2.2569    0.0420 O   0  0  0  0  0  0  0  0  0  0  0  0
   -1.0193   -0.6003   -2.1618 C   0  0  0  0  0  0  0  0  0  0  0  0
   -0.9731   -0.7906   -3.3077 N   0  0  0  0  0  0  0  0  0  0  0  0
    2.4727    0.8600    2.1251 H   0  0  0  0  0  0  0  0  0  0  0  0
    1.8585    3.0657    0.4476 H   0  0  0  0  0  0  0  0  0  0  0  0
    3.0153    1.7667    0.0887 H   0  0  0  0  0  0  0  0  0  0  0  0
   -1.9958    0.2062   -0.4982 H   0  0  0  0  0  0  0  0  0  0  0  0
   -0.3999   -2.3996   -0.3653 H   0  0  0  0  0  0  0  0  0  0  0  0
   -0.8276   -1.5344    1.1138 H   0  0  0  0  0  0  0  0  0  0  0  0
   -2.9725   -1.7561    0.6550 H   0  0  0  0  0  0  0  0  0  0  0  0
  6 14  1  0
  5 13  1  0
  1 10  1  0
  1  2  1  0
  2 11  1  0
  6  7  1  0
  7 16  1  0
  5  6  1  0
  6 15  1  0
  4  5  1  0
  5  8  1  0
  3  4  3  0
  2  3  1  0
  2 12  1  0
  8  9  3  0
M  END
$$$$

     RDKit          3D

 23 24  0  0  0  0  0  0  0  0999 V2000
   -0.4708    0.5079    1.4908 C   0  0  0  0  0  0  0  0  0  0  0  0
   -0.7458    1.2326    0.1174 C   0  0  0  0  0  0  0  0  0  0  0  0
   -1.9663    0.2610   -0.0260 C   0  0  0  0  0  0  0  0  0  0  0  0
   -1.1835   -0.7036    0.9506 C   0  0  0  0  0  0  0  0  0  0  0  0
   -0.4990   -1.7811    0.1639 C   0  0  0  0  0  0  0  0  0  0  0  0
    0.7551   -1.7262   -0.3136 C   0  0  0  0  0  0  0  0  0  0  0  0
    1.8281   -0.6645   -0.1067 C   0  0  0  0  0  0  0  0  0  0  0  0
    1.6322    0.6563   -0.8035 C   0  0  0  0  0  0  0  0  0  0  0  0
    0.2044    1.1358   -1.0695 C   0  0  0  0  0  0  0  0  0  0  0  0
    0.5354    0.5115    1.8795 H   0  0  0  0  0  0  0  0  0  0  0  0
   -1.0385    1.0036    2.3003 H   0  0  0  0  0  0  0  0  0  0  0  0
   -1.0891    2.2751    0.2456 H   0  0  0  0  0  0  0  0  0  0  0  0
   -2.2133   -0.1275   -1.0336 H   0  0  0  0  0  0  0  0  0  0  0  0
   -2.9142    0.6674    0.3533 H   0  0  0  0  0  0  0  0  0  0  0  0
   -1.8374   -1.1357    1.6888 H   0  0  0  0  0  0  0  0  0  0  0  0
   -1.1176   -2.6437   -0.1059 H   0  0  0  0  0  0  0  0  0  0  0  0
    1.0700   -2.5680   -0.9265 H   0  0  0  0  0  0  0  0  0  0  0  0
    2.7849   -1.1135   -0.4579 H   0  0  0  0  0  0  0  0  0  0  0  0
    2.0059   -0.4551    0.9642 H   0  0  0  0  0  0  0  0  0  0  0  0
    2.1383    1.3619   -0.1531 H   0  0  0  0  0  0  0  0  0  0  0  0
    2.1217    0.6452   -1.7939 H   0  0  0  0  0  0  0  0  0  0  0  0
   -0.2647    0.5308   -1.8616 H   0  0  0  0  0  0  0  0  0  0  0  0
    0.2642    2.1296   -1.5025 H   0  0  0  0  0  0  0  0  0  0  0  0
  7 18  1  0
  8 20  1  0
  6 17  1  0
  7 19  1  0
  7  8  1  0
  6  7  1  0
  8 21  1  0
  8  9  1  0
  5  6  2  3
  9 23  1  0
  9 22  1  0
  2  9  1  0
  5 16  1  0
  4  5  1  0
  1 11  1  0
  1  4  1  0
  1  2  1  0
  1 10  1  0
  4 15  1  0
  3  4  1  0
  2  3  1  0
  2 12  1  0
  3 13  1  0
  3 14  1  0
M  END
$$$$

     RDKit          3D

 13 13  0  0  0  0  0  0  0  0999 V2000
    0.4909    1.9959   -0.1343 C   0  0  0  0  0  0  0  0  0  0  0  0
    0.4915    0.6275    0.4968 C   0  0  0  0  0  0  0  0  0  0  0  0
    1.0901    0.4144    1.5521 O   0  0  0  0  0  0  0  0  0  0  0  0
   -0.2283   -0.4082   -0.1770 C   0  0  0  0  0  0  0  0  0  0  0  0
   -0.4234   -1.7282    0.1189 C   0  0  0  0  0  0  0  0  0  0  0  0
    0.0690   -2.3616    1.1979 O   0  0  0  0  0  0  0  0  0  0  0  0
   -1.1929   -2.2887   -0.8532 N   0  0  0  0  0  0  0  0  0  0  0  0
   -1.4886   -1.3558   -1.7556 N   0  0  0  0  0  0  0  0  0  0  0  0
   -0.8869   -0.1633   -1.3427 O   0  0  0  0  0  0  0  0  0  0  0  0
    0.9452    1.9500   -1.1278 H   0  0  0  0  0  0  0  0  0  0  0  0
   -0.5321    2.3755   -0.2040 H   0  0  0  0  0  0  0  0  0  0  0  0
    1.0756    2.6837    0.4838 H   0  0  0  0  0  0  0  0  0  0  0  0
    0.5900   -1.7410    1.7452 H   0  0  0  0  0  0  0  0  0  0  0  0
  7  8  2  0
  8  9  1  0
  5  7  1  0
  4  9  1  0
  4  5  2  0
  5  6  1  0
  2  4  1  0
  6 13  1  0
  1 11  1  0
  1 10  1  0
  1  2  1  0
  2  3  2  0
  1 12  1  0
M  END
$$$$

     RDKit          3D

 19 19  0  0  0  0  0  0  0  0999 V2000
   -0.4789    2.2938    1.6258 C   0  0  0  0  0  0  0  0  0  0  0  0
    0.0358    1.7282    0.4285 O   0  0  0  0  0  0  0  0  0  0  0  0
   -0.7244    0.6196   -0.0365 C   0  0  0  0  0  0  0  0  0  0  0  0
   -0.3736    0.3478   -1.5067 C   0  0  0  0  0  0  0  0  0  0  0  0
    0.6878   -0.7559   -1.4993 C   0  0  0  0  0  0  0  0  0  0  0  0
    0.4921   -1.3766   -0.1607 C   0  0  0  0  0  0  0  0  0  0  0  0
    1.1118   -2.6528    0.2225 C   0  0  0  0  0  0  0  0  0  0  0  0
    1.7867   -3.3107   -0.5582 O   0  0  0  0  0  0  0  0  0  0  0  0
   -0.2743   -0.6337    0.6459 C   0  0  0  0  0  0  0  0  0  0  0  0
   -0.4256    1.5771    2.4505 H   0  0  0  0  0  0  0  0  0  0  0  0
    0.1299    3.1658    1.8819 H   0  0  0  0  0  0  0  0  0  0  0  0
   -1.5109    2.6260    1.4817 H   0  0  0  0  0  0  0  0  0  0  0  0
   -1.8001    0.8001    0.0707 H   0  0  0  0  0  0  0  0  0  0  0  0
   -1.2613   -0.0173   -2.0393 H   0  0  0  0  0  0  0  0  0  0  0  0
   -0.0125    1.2420   -2.0296 H   0  0  0  0  0  0  0  0  0  0  0  0
    1.6960   -0.3379   -1.5842 H   0  0  0  0  0  0  0  0  0  0  0  0
    0.5225   -1.4608   -2.3210 H   0  0  0  0  0  0  0  0  0  0  0  0
    0.9302   -2.9820    1.2597 H   0  0  0  0  0  0  0  0  0  0  0  0
   -0.5312   -0.8727    1.6684 H   0  0  0  0  0  0  0  0  0  0  0  0
  7  8  2  0
  7 18  1  0
  6  7  1  0
  6  9  2  0
  5  6  1  0
  5 16  1  0
  9 19  1  0
  3  9  1  0
  5 17  1  0
  4  5  1  0
  3 13  1  0
  3  4  1  0
  2  3  1  0
  4 14  1  0
  4 15  1  0
  1 11  1  0
  1 10  1  0
  1  2  1  0
  1 12  1  0
M  END
$$$$

     RDKit          3D

 17 19  0  0  0  0  0  0  0  0999 V2000
    0.8607    1.3131    1.6031 C   0  0  0  0  0  0  0  0  0  0  0  0
    0.2834    0.4991    0.5110 C   0  0  0  0  0  0  0  0  0  0  0  0
    1.1075    0.2272   -0.7151 C   0  0  0  0  0  0  0  0  0  0  0  0
   -0.2567   -0.2502   -1.4183 C   0  0  0  0  0  0  0  0  0  0  0  0
   -0.6149   -1.6452   -1.0599 N   0  0  0  0  0  0  0  0  0  0  0  0
   -1.0529   -1.6779    0.2999 C   0  0  0  0  0  0  0  0  0  0  0  0
   -1.7218   -2.6160    0.7180 O   0  0  0  0  0  0  0  0  0  0  0  0
   -0.8461   -0.3548    0.8365 N   0  0  0  0  0  0  0  0  0  0  0  0
   -0.9144    0.5449   -0.2984 C   0  0  0  0  0  0  0  0  0  0  0  0
    1.1462    2.3083    1.2440 H   0  0  0  0  0  0  0  0  0  0  0  0
    1.8258    0.8463    1.8812 H   0  0  0  0  0  0  0  0  0  0  0  0
    0.2337    1.3738    2.5284 H   0  0  0  0  0  0  0  0  0  0  0  0
    1.5225    1.0890   -1.2020 H   0  0  0  0  0  0  0  0  0  0  0  0
    1.9358   -0.4365   -0.3843 H   0  0  0  0  0  0  0  0  0  0  0  0
   -0.3361    0.1127   -2.4650 H   0  0  0  0  0  0  0  0  0  0  0  0
   -1.2418   -2.2244   -1.6736 H   0  0  0  0  0  0  0  0  0  0  0  0
   -1.9308    0.8907   -0.4056 H   0  0  0  0  0  0  0  0  0  0  0  0
  3 13  1  0
  4 15  1  0
  3 14  1  0
  3  4  1  0
  2  3  1  0
  1 11  1  0
  4  9  1  0
  4  5  1  0
  2  9  1  0
  1  2  1  0
  2  8  1  0
  9 17  1  0
  8  9  1  0
  1 10  1  0
  1 12  1  0
  5 16  1  0
  5  6  1  0
  6  8  1  0
  6  7  2  0
M  END
$$$$

     RDKit          3D

 15 15  0  0  0  0  0  0  0  0999 V2000
    1.1144    0.1572   -2.3866 C   0  0  0  0  0  0  0  0  0  0  0  0
    0.4957    0.3162   -1.0551 C   0  0  0  0  0  0  0  0  0  0  0  0
    0.2051    1.4284   -0.4071 N   0  0  0  0  0  0  0  0  0  0  0  0
   -0.3368    0.9731    0.7541 C   0  0  0  0  0  0  0  0  0  0  0  0
   -0.7760    1.7692    1.7315 O   0  0  0  0  0  0  0  0  0  0  0  0
   -0.3722   -0.3972    0.7875 C   0  0  0  0  0  0  0  0  0  0  0  0
   -0.8350   -1.4108    1.7481 C   0  0  0  0  0  0  0  0  0  0  0  0
    0.1718   -0.8380   -0.3898 O   0  0  0  0  0  0  0  0  0  0  0  0
    1.8321    0.9606   -2.5737 H   0  0  0  0  0  0  0  0  0  0  0  0
    0.3482    0.1888   -3.1661 H   0  0  0  0  0  0  0  0  0  0  0  0
    1.6463   -0.7946   -2.4630 H   0  0  0  0  0  0  0  0  0  0  0  0
   -0.6242    2.6797    1.4187 H   0  0  0  0  0  0  0  0  0  0  0  0
   -1.5298   -0.9740    2.4731 H   0  0  0  0  0  0  0  0  0  0  0  0
    0.0112   -1.8334    2.2973 H   0  0  0  0  0  0  0  0  0  0  0  0
   -1.3508   -2.2252    1.2309 H   0  0  0  0  0  0  0  0  0  0  0  0
  5 12  1  0
  4  5  1  0
  3  4  1  0
  2  3  2  0
  1 10  1  0
  4  6  2  0
  1  2  1  0
  2  8  1  0
  1  9  1  0
  1 11  1  0
  6  8  1  0
  6  7  1  0
  7 15  1  0
  7 13  1  0
  7 14  1  0
M  END
$$$$

     RDKit          3D

 21 21  0  0  0  0  0  0  0  0999 V2000
    0.5564    2.3820   -1.8694 C   0  0  0  0  0  0  0  0  0  0  0  0
    1.8680    1.8967   -1.2485 C   0  0  0  0  0  0  0  0  0  0  0  0
    1.5568    1.0903   -0.0422 C   0  0  0  0  0  0  0  0  0  0  0  0
    1.0659    0.4514    0.8641 C   0  0  0  0  0  0  0  0  0  0  0  0
    0.1003   -0.2095    1.6796 C   0  0  0  0  0  0  0  0  0  0  0  0
    0.3468   -1.5516    2.1029 O   0  0  0  0  0  0  0  0  0  0  0  0
   -0.6413   -1.4031    1.0712 C   0  0  0  0  0  0  0  0  0  0  0  0
   -2.0795   -1.5364    1.4579 C   0  0  0  0  0  0  0  0  0  0  0  0
   -0.2140   -1.9800   -0.2541 C   0  0  0  0  0  0  0  0  0  0  0  0
    0.7049    2.9402   -2.8050 H   0  0  0  0  0  0  0  0  0  0  0  0
   -0.1010    1.5208   -2.1110 H   0  0  0  0  0  0  0  0  0  0  0  0
    0.0306    3.0204   -1.1521 H   0  0  0  0  0  0  0  0  0  0  0  0
    2.4314    1.2839   -1.9668 H   0  0  0  0  0  0  0  0  0  0  0  0
    2.4926    2.7702   -1.0003 H   0  0  0  0  0  0  0  0  0  0  0  0
   -0.4408    0.4152    2.3979 H   0  0  0  0  0  0  0  0  0  0  0  0
   -2.6323   -2.2215    0.7860 H   0  0  0  0  0  0  0  0  0  0  0  0
   -2.5616   -0.5455    1.3942 H   0  0  0  0  0  0  0  0  0  0  0  0
   -2.1919   -1.9352    2.4824 H   0  0  0  0  0  0  0  0  0  0  0  0
   -0.1495   -1.1906   -1.0147 H   0  0  0  0  0  0  0  0  0  0  0  0
   -0.9096   -2.7445   -0.6206 H   0  0  0  0  0  0  0  0  0  0  0  0
    0.7677   -2.4532   -0.1514 H   0  0  0  0  0  0  0  0  0  0  0  0
  5  6  1  0
  6  7  1  0
  2 13  1  0
  1 11  1  0
  8 18  1  0
  8 16  1  0
  2  3  1  0
  1  2  1  0
  2 14  1  0
  1 10  1  0
  3  4  3  0
  1 12  1  0
  4  5  1  0
  5  7  1  0
  5 15  1  0
  7  8  1  0
  8 17  1  0
  7  9  1  0
  9 19  1  0
  9 21  1  0
  9 20  1  0
M  END
$$$$

     RDKit          3D

 18 22  0  0  0  0  0  0  0  0999 V2000
   -1.2902    0.2516    1.9189 C   0  0  0  0  0  0  0  0  0  0  0  0
   -1.2570    0.7087    0.4834 C   0  0  0  0  0  0  0  0  0  0  0  0
   -0.1590    1.0284    1.4796 N   0  0  0  0  0  0  0  0  0  0  0  0
    1.0228    0.2763    0.8787 C   0  0  0  0  0  0  0  0  0  0  0  0
    0.5253   -1.0110    0.1211 C   0  0  0  0  0  0  0  0  0  0  0  0
    1.2562   -0.6563   -1.1934 C   0  0  0  0  0  0  0  0  0  0  0  0
   -0.1903   -0.5490   -1.8620 C   0  0  0  0  0  0  0  0  0  0  0  0
   -0.4268    0.0912   -0.5220 C   0  0  0  0  0  0  0  0  0  0  0  0
    1.0211    0.7585   -0.6175 C   0  0  0  0  0  0  0  0  0  0  0  0
   -2.0406    0.7326    2.5418 H   0  0  0  0  0  0  0  0  0  0  0  0
   -1.1363   -0.7896    2.1510 H   0  0  0  0  0  0  0  0  0  0  0  0
   -1.8060    1.5895    0.1500 H   0  0  0  0  0  0  0  0  0  0  0  0
    1.9595    0.2694    1.4316 H   0  0  0  0  0  0  0  0  0  0  0  0
    0.1490   -1.9684    0.4725 H   0  0  0  0  0  0  0  0  0  0  0  0
    2.1803   -1.0694   -1.5738 H   0  0  0  0  0  0  0  0  0  0  0  0
   -0.7089   -1.4895   -2.0483 H   0  0  0  0  0  0  0  0  0  0  0  0
   -0.2616    0.0980   -2.7410 H   0  0  0  0  0  0  0  0  0  0  0  0
    1.1624    1.7289   -1.0708 H   0  0  0  0  0  0  0  0  0  0  0  0
  6 15  1  0
  7 17  1  0
  6  7  1  0
  5  6  1  0
  6  9  1  0
  5 14  1  0
  7 16  1  0
  7  8  1  0
  5  8  1  0
  4  5  1  0
  8  9  1  0
  4  9  1  0
  9 18  1  0
  4 13  1  0
  2  8  1  0
  3  4  1  0
  1 11  1  0
  2  3  1  0
  1  2  1  0
  2 12  1  0
  1  3  1  0
  1 10  1  0
M  END
$$$$

     RDKit          3D

 15 15  0  0  0  0  0  0  0  0999 V2000
    2.2276   -1.1748    1.4553 O   0  0  0  0  0  0  0  0  0  0  0  0
    1.4953   -0.7385    0.5663 C   0  0  0  0  0  0  0  0  0  0  0  0
    0.1177   -0.1963    0.8487 C   0  0  0  0  0  0  0  0  0  0  0  0
    0.0357    1.2516    0.4546 C   0  0  0  0  0  0  0  0  0  0  0  0
   -0.1016    1.4597   -0.9591 O   0  0  0  0  0  0  0  0  0  0  0  0
   -0.5469    0.5256   -1.8396 C   0  0  0  0  0  0  0  0  0  0  0  0
   -0.6189    0.7605   -3.0362 O   0  0  0  0  0  0  0  0  0  0  0  0
   -0.8474   -0.6989   -1.3315 O   0  0  0  0  0  0  0  0  0  0  0  0
   -0.9187   -0.9579    0.0752 C   0  0  0  0  0  0  0  0  0  0  0  0
    1.8308   -0.7186   -0.4891 H   0  0  0  0  0  0  0  0  0  0  0  0
   -0.0501   -0.3041    1.9273 H   0  0  0  0  0  0  0  0  0  0  0  0
    0.9293    1.8011    0.7767 H   0  0  0  0  0  0  0  0  0  0  0  0
   -0.8300    1.7308    0.9308 H   0  0  0  0  0  0  0  0  0  0  0  0
   -0.7909   -2.0381    0.2123 H   0  0  0  0  0  0  0  0  0  0  0  0
   -1.9319   -0.7022    0.4082 H   0  0  0  0  0  0  0  0  0  0  0  0
  4 12  1  0
  4 13  1  0
  4  5  1  0
  3  4  1  0
  5  6  1  0
  3 11  1  0
  1  2  2  0
  2  3  1  0
  3  9  1  0
  2 10  1  0
  6  7  2  0
  6  8  1  0
  8  9  1  0
  9 14  1  0
  9 15  1  0
M  END
$$$$

     RDKit          3D

 15 15  0  0  0  0  0  0  0  0999 V2000
    1.5582    2.1946    0.1895 C   0  0  0  0  0  0  0  0  0  0  0  0
    1.5707    1.0366    0.5124 C   0  0  0  0  0  0  0  0  0  0  0  0
    1.5764   -0.3716    0.9338 C   0  0  0  0  0  0  0  0  0  0  0  0
    0.2814   -0.7701    1.4783 N   0  0  0  0  0  0  0  0  0  0  0  0
   -0.6617   -1.2561    0.4687 C   0  0  0  0  0  0  0  0  0  0  0  0
   -1.6152   -0.1340    0.0691 C   0  0  0  0  0  0  0  0  0  0  0  0
   -1.3002   -0.5952   -1.3561 C   0  0  0  0  0  0  0  0  0  0  0  0
   -0.1881   -1.4011   -0.8919 O   0  0  0  0  0  0  0  0  0  0  0  0
    1.5445    3.2273   -0.0794 H   0  0  0  0  0  0  0  0  0  0  0  0
    1.9338   -1.0328    0.1364 H   0  0  0  0  0  0  0  0  0  0  0  0
    2.3058   -0.4797    1.7465 H   0  0  0  0  0  0  0  0  0  0  0  0
   -2.6504   -0.2831    0.3875 H   0  0  0  0  0  0  0  0  0  0  0  0
   -1.3094    0.8924    0.2795 H   0  0  0  0  0  0  0  0  0  0  0  0
   -2.0686   -1.2190   -1.8297 H   0  0  0  0  0  0  0  0  0  0  0  0
   -0.9773    0.1919   -2.0446 H   0  0  0  0  0  0  0  0  0  0  0  0
  7 14  1  0
  6 12  1  0
  6  7  1  0
  7 15  1  0
  7  8  1  0
  6 13  1  0
  5  6  1  0
  5  8  1  0
  1  9  1  0
  4  5  1  0
  1  2  3  0
  3  4  1  0
  2  3  1  0
  3 11  1  0
  3 10  1  0
M  END
$$$$

     RDKit          3D

 16 16  0  0  0  0  0  0  0  0999 V2000
    0.2304   -2.0518    0.3413 C   0  0  0  0  0  0  0  0  0  0  0  0
   -0.0219   -0.6578   -0.1251 C   0  0  0  0  0  0  0  0  0  0  0  0
    0.1143    0.4661    0.5945 C   0  0  0  0  0  0  0  0  0  0  0  0
    0.5492    0.5391    1.9127 N   0  0  0  0  0  0  0  0  0  0  0  0
   -0.2110    1.7851   -0.0720 C   0  0  0  0  0  0  0  0  0  0  0  0
   -0.0239    2.8463    0.5219 O   0  0  0  0  0  0  0  0  0  0  0  0
   -0.6913    1.7314   -1.3526 N   0  0  0  0  0  0  0  0  0  0  0  0
   -0.8377    0.6016   -2.0976 N   0  0  0  0  0  0  0  0  0  0  0  0
   -0.5179   -0.5070   -1.5120 C   0  0  0  0  0  0  0  0  0  0  0  0
    1.0921   -2.4842   -0.1899 H   0  0  0  0  0  0  0  0  0  0  0  0
    0.4351   -2.1090    1.4165 H   0  0  0  0  0  0  0  0  0  0  0  0
   -0.6483   -2.6834    0.1426 H   0  0  0  0  0  0  0  0  0  0  0  0
    1.2601   -0.1463    2.1562 H   0  0  0  0  0  0  0  0  0  0  0  0
    0.8064    1.5000    2.1537 H   0  0  0  0  0  0  0  0  0  0  0  0
   -0.9191    2.6129   -1.8033 H   0  0  0  0  0  0  0  0  0  0  0  0
   -0.6166   -1.4431   -2.0869 H   0  0  0  0  0  0  0  0  0  0  0  0
  1 11  1  0
  4 13  1  0
  9 16  1  0
  8  9  2  0
  7  8  1  0
  4 14  1  0
  2  9  1  0
  7 15  1  0
  5  7  1  0
  1  2  1  0
  2  3  2  0
  1 10  1  0
  1 12  1  0
  5  6  2  0
  3  5  1  0
  3  4  1  0
M  END
$$$$

     RDKit          3D

 21 23  0  0  0  0  0  0  0  0999 V2000
    1.7341   -1.1010    0.7123 C   0  0  0  0  0  0  0  0  0  0  0  0
    0.4630   -1.9878    0.5045 C   0  0  0  0  0  0  0  0  0  0  0  0
   -0.6317   -1.0448    0.0284 C   0  0  0  0  0  0  0  0  0  0  0  0
   -0.5453   -0.1502   -1.2324 C   0  0  0  0  0  0  0  0  0  0  0  0
   -1.3663    1.0448   -1.5998 C   0  0  0  0  0  0  0  0  0  0  0  0
   -1.5772    1.9629   -0.6224 C   0  0  0  0  0  0  0  0  0  0  0  0
   -1.0033    1.4213    0.6603 C   0  0  0  0  0  0  0  0  0  0  0  0
   -0.0925    0.3145    0.1600 C   0  0  0  0  0  0  0  0  0  0  0  0
    1.3879    0.3634    0.3836 C   0  0  0  0  0  0  0  0  0  0  0  0
    2.4896   -1.4944    0.0277 H   0  0  0  0  0  0  0  0  0  0  0  0
    2.0664   -1.2921    1.7686 H   0  0  0  0  0  0  0  0  0  0  0  0
    0.1390   -2.4720    1.4664 H   0  0  0  0  0  0  0  0  0  0  0  0
    0.6689   -2.7883   -0.1674 H   0  0  0  0  0  0  0  0  0  0  0  0
   -1.6738   -1.3102    0.3787 H   0  0  0  0  0  0  0  0  0  0  0  0
    0.2257   -0.4884   -1.9857 H   0  0  0  0  0  0  0  0  0  0  0  0
   -1.4558    1.3037   -2.6549 H   0  0  0  0  0  0  0  0  0  0  0  0
   -1.8761    3.0100   -0.7976 H   0  0  0  0  0  0  0  0  0  0  0  0
   -1.8837    0.9397    1.1787 H   0  0  0  0  0  0  0  0  0  0  0  0
   -0.5413    2.0801    1.3234 H   0  0  0  0  0  0  0  0  0  0  0  0
    1.6641    1.1708    1.0748 H   0  0  0  0  0  0  0  0  0  0  0  0
    1.8082    0.5180   -0.6071 H   0  0  0  0  0  0  0  0  0  0  0  0
  1 11  1  0
  4 15  1  0
  1 10  1  0
  1  9  1  0
  1  2  1  0
  9 21  1  0
  2 12  1  0
  4  5  1  0
  4  8  1  0
  3  4  1  0
  8  9  1  0
  9 20  1  0
  2  3  1  0
  2 13  1  0
  5 16  1  0
  5  6  2  0
  3  8  1  0
  7  8  1  0
  3 14  1  0
  7 18  1  0
  6  7  1  0
  6 17  1  0
  7 19  1  0
M  END
$$$$

     RDKit          3D

 18 18  0  0  0  0  0  0  0  0999 V2000
   -1.8998    1.1552    0.2709 F   0  0  0  0  0  0  0  0  0  0  0  0
   -1.5424    0.6679   -0.9372 C   0  0  0  0  0  0  0  0  0  0  0  0
   -1.5649    1.6935   -1.8275 F   0  0  0  0  0  0  0  0  0  0  0  0
   -2.4892   -0.2202   -1.3222 F   0  0  0  0  0  0  0  0  0  0  0  0
   -0.1720    0.0017   -0.9544 C   0  0  0  0  0  0  0  0  0  0  0  0
    0.8992    0.8865   -0.3027 C   0  0  0  0  0  0  0  0  0  0  0  0
    0.8458    0.5224    1.1882 C   0  0  0  0  0  0  0  0  0  0  0  0
    0.5591   -0.9819    1.2061 C   0  0  0  0  0  0  0  0  0  0  0  0
   -0.0917   -1.3073   -0.1519 C   0  0  0  0  0  0  0  0  0  0  0  0
    0.0984   -0.1924   -2.0113 H   0  0  0  0  0  0  0  0  0  0  0  0
    0.7384    1.9604   -0.4729 H   0  0  0  0  0  0  0  0  0  0  0  0
    1.8802    0.6219   -0.7208 H   0  0  0  0  0  0  0  0  0  0  0  0
    0.0302    1.0673    1.6903 H   0  0  0  0  0  0  0  0  0  0  0  0
    1.7841    0.7637    1.7089 H   0  0  0  0  0  0  0  0  0  0  0  0
    1.4967   -1.5465    1.3037 H   0  0  0  0  0  0  0  0  0  0  0  0
   -0.0663   -1.2743    2.0604 H   0  0  0  0  0  0  0  0  0  0  0  0
    0.5643   -2.0178   -0.6890 H   0  0  0  0  0  0  0  0  0  0  0  0
   -1.0703   -1.8000   -0.0386 H   0  0  0  0  0  0  0  0  0  0  0  0
  2  4  1  0
  2  3  1  0
  1  2  1  0
  2  5  1  0
  6 12  1  0
  5 10  1  0
  6 11  1  0
  5  6  1  0
  5  9  1  0
  6  7  1  0
  9 17  1  0
  9 18  1  0
  8  9  1  0
  7 14  1  0
  7 13  1  0
  7  8  1  0
  8 16  1  0
  8 15  1  0
M  END
$$$$

     RDKit          3D

 11 10  0  0  0  0  0  0  0  0999 V2000
    0.0955   -0.9369    1.1176 C   0  0  0  0  0  0  0  0  0  0  0  0
    0.6612   -0.2247   -0.0817 C   0  0  0  0  0  0  0  0  0  0  0  0
    1.8745   -0.1589   -0.2819 O   0  0  0  0  0  0  0  0  0  0  0  0
   -0.3371    0.4318   -1.0216 C   0  0  0  0  0  0  0  0  0  0  0  0
   -0.9728    1.5431   -0.4182 O   0  0  0  0  0  0  0  0  0  0  0  0
   -0.4170   -0.2202    1.7637 H   0  0  0  0  0  0  0  0  0  0  0  0
    0.9056   -1.4073    1.6817 H   0  0  0  0  0  0  0  0  0  0  0  0
   -0.5995   -1.7135    0.7889 H   0  0  0  0  0  0  0  0  0  0  0  0
   -1.0943   -0.3044   -1.3070 H   0  0  0  0  0  0  0  0  0  0  0  0
    0.1750    0.7596   -1.9317 H   0  0  0  0  0  0  0  0  0  0  0  0
   -0.2910    2.2314   -0.3098 H   0  0  0  0  0  0  0  0  0  0  0  0
  1  2  1  0
  1  6  1  0
  1  7  1  0
  1  8  1  0
  2  3  2  0
  2  4  1  0
  4  5  1  0
  4  9  1  0
  4 10  1  0
  5 11  1  0
M  END
$$$$

     RDKit          3D

 12 12  0  0  0  0  0  0  0  0999 V2000
   -0.7916   -0.6120   -1.9413 O   0  0  0  0  0  0  0  0  0  0  0  0
   -0.8630    0.1017   -0.6957 C   0  0  0  0  0  0  0  0  0  0  0  0
   -0.8293    1.5609   -0.9212 C   0  0  0  0  0  0  0  0  0  0  0  0
   -0.8131    2.7132   -1.0704 N   0  0  0  0  0  0  0  0  0  0  0  0
    0.2315   -0.2848    0.2376 C   0  0  0  0  0  0  0  0  0  0  0  0
    1.4055   -0.7483   -0.2105 N   0  0  0  0  0  0  0  0  0  0  0  0
    2.1530   -0.9999    0.9394 O   0  0  0  0  0  0  0  0  0  0  0  0
    1.4261   -0.6912    2.0864 N   0  0  0  0  0  0  0  0  0  0  0  0
    0.2531   -0.2529    1.6375 C   0  0  0  0  0  0  0  0  0  0  0  0
    0.1592   -0.6799   -2.1558 H   0  0  0  0  0  0  0  0  0  0  0  0
   -1.8269   -0.1654   -0.2476 H   0  0  0  0  0  0  0  0  0  0  0  0
   -0.5046    0.0587    2.3416 H   0  0  0  0  0  0  0  0  0  0  0  0
  1  2  1  0
  1 10  1  0
  2  3  1  0
  2  5  1  0
  2 11  1  0
  3  4  3  0
  5  6  2  0
  5  9  1  0
  6  7  1  0
  7  8  1  0
  8  9  2  0
  9 12  1  0
M  END
$$$$

     RDKit          3D

 16 17  0  0  0  0  0  0  0  0999 V2000
    1.0430    2.2092    2.5463 O   0  0  0  0  0  0  0  0  0  0  0  0
    0.7110    1.4839    1.6371 C   0  0  0  0  0  0  0  0  0  0  0  0
   -0.6117    0.9282    1.0386 C   0  0  0  0  0  0  0  0  0  0  0  0
    0.3590    0.1904    0.1418 C   0  0  0  0  0  0  0  0  0  0  0  0
    0.2327   -1.3258    0.1189 C   0  0  0  0  0  0  0  0  0  0  0  0
   -0.4513   -1.1865   -1.2582 C   0  0  0  0  0  0  0  0  0  0  0  0
    0.0985    0.2529   -1.3551 C   0  0  0  0  0  0  0  0  0  0  0  0
    1.4979    0.8341    0.7323 O   0  0  0  0  0  0  0  0  0  0  0  0
   -1.1882    0.3247    1.7398 H   0  0  0  0  0  0  0  0  0  0  0  0
   -1.2355    1.6985    0.5789 H   0  0  0  0  0  0  0  0  0  0  0  0
    1.1939   -1.8517    0.0893 H   0  0  0  0  0  0  0  0  0  0  0  0
   -0.3922   -1.7728    0.8922 H   0  0  0  0  0  0  0  0  0  0  0  0
   -1.5470   -1.2402   -1.2126 H   0  0  0  0  0  0  0  0  0  0  0  0
   -0.0902   -1.8791   -2.0257 H   0  0  0  0  0  0  0  0  0  0  0  0
   -0.6287    0.9932   -1.7040 H   0  0  0  0  0  0  0  0  0  0  0  0
    1.0090    0.3410   -1.9596 H   0  0  0  0  0  0  0  0  0  0  0  0
  1  2  2  0
  3  9  1  0
  5 12  1  0
  2  3  1  0
  2  8  1  0
  3  4  1  0
  3 10  1  0
  5 11  1  0
  4  8  1  0
  4  5  1  0
  5  6  1  0
  4  7  1  0
  6 14  1  0
  6  7  1  0
  6 13  1  0
  7 16  1  0
  7 15  1  0
M  END
$$$$

     RDKit          3D

 17 18  0  0  0  0  0  0  0  0999 V2000
   -3.1241   -1.3585    0.7590 C   0  0  0  0  0  0  0  0  0  0  0  0
   -2.2305   -1.3315   -0.0694 C   0  0  0  0  0  0  0  0  0  0  0  0
   -0.8830   -1.2776   -0.7169 C   0  0  0  0  0  0  0  0  0  0  0  0
    0.1310   -1.3486    0.3566 O   0  0  0  0  0  0  0  0  0  0  0  0
    0.2998    0.0173    0.7640 C   0  0  0  0  0  0  0  0  0  0  0  0
    1.6076    0.8134    0.9306 C   0  0  0  0  0  0  0  0  0  0  0  0
    1.6130    1.3239   -0.4893 C   0  0  0  0  0  0  0  0  0  0  0  0
    0.2674    0.7142   -0.5328 C   0  0  0  0  0  0  0  0  0  0  0  0
   -0.4919    0.0486   -1.4139 C   0  0  0  0  0  0  0  0  0  0  0  0
   -3.6192   -1.2806    1.7188 H   0  0  0  0  0  0  0  0  0  0  0  0
   -0.7791   -2.0989   -1.4175 H   0  0  0  0  0  0  0  0  0  0  0  0
   -0.4681    0.3440    1.4811 H   0  0  0  0  0  0  0  0  0  0  0  0
    1.4773    1.7189    1.5099 H   0  0  0  0  0  0  0  0  0  0  0  0
    2.5490    0.3181    1.3149 H   0  0  0  0  0  0  0  0  0  0  0  0
    1.6546    2.3764   -0.6183 H   0  0  0  0  0  0  0  0  0  0  0  0
    2.3879    0.8770   -1.0828 H   0  0  0  0  0  0  0  0  0  0  0  0
   -0.3916    0.1442   -2.4940 H   0  0  0  0  0  0  0  0  0  0  0  0
  3 11  1  0
  9 17  1  0
  3  9  1  0
  2  3  1  0
  3  4  1  0
  8  9  2  0
  1  2  3  0
  1 10  1  0
  5  8  1  0
  7  8  1  0
  4  5  1  0
  5 12  1  0
  5  6  1  0
  7 15  1  0
  7 16  1  0
  6  7  1  0
  6 14  1  0
  6 13  1  0
M  END
$$$$

     RDKit          3D

 20 21  0  0  0  0  0  0  0  0999 V2000
   -1.7214   -0.8682   -1.0249 C   0  0  0  0  0  0  0  0  0  0  0  0
   -1.2436   -0.0952    0.1943 C   0  0  0  0  0  0  0  0  0  0  0  0
   -0.5117    1.2124   -0.1763 C   0  0  0  0  0  0  0  0  0  0  0  0
    0.9663    0.7975   -0.2236 C   0  0  0  0  0  0  0  0  0  0  0  0
    1.8779    1.9011    0.0242 N   0  0  0  0  0  0  0  0  0  0  0  0
    1.8442    2.7017   -1.1967 O   0  0  0  0  0  0  0  0  0  0  0  0
    1.0752   -0.2763    0.8171 C   0  0  0  0  0  0  0  0  0  0  0  0
    0.8673   -1.7311    0.4021 C   0  0  0  0  0  0  0  0  0  0  0  0
   -0.2423   -0.8683    1.0269 C   0  0  0  0  0  0  0  0  0  0  0  0
   -0.8872   -1.2586   -1.6135 H   0  0  0  0  0  0  0  0  0  0  0  0
   -2.3297   -0.2258   -1.6732 H   0  0  0  0  0  0  0  0  0  0  0  0
   -2.3353   -1.7247   -0.7114 H   0  0  0  0  0  0  0  0  0  0  0  0
   -2.1157    0.1436    0.8140 H   0  0  0  0  0  0  0  0  0  0  0  0
   -0.8624    1.6566   -1.1066 H   0  0  0  0  0  0  0  0  0  0  0  0
   -0.6749    1.9381    0.6318 H   0  0  0  0  0  0  0  0  0  0  0  0
    2.7845    2.6524   -1.4719 H   0  0  0  0  0  0  0  0  0  0  0  0
    1.6710   -0.0310    1.6871 H   0  0  0  0  0  0  0  0  0  0  0  0
    0.5514   -2.7045    0.8534 H   0  0  0  0  0  0  0  0  0  0  0  0
    1.8636   -2.1336    0.7066 H   0  0  0  0  0  0  0  0  0  0  0  0
   -0.5772   -1.0863    2.0406 H   0  0  0  0  0  0  0  0  0  0  0  0
  6 16  1  0
  5  6  1  0
  3 14  1  0
  3 15  1  0
  4  5  1  0
  3  4  1  0
  2  3  1  0
  1 11  1  0
  4  7  1  0
  1 10  1  0
  1  2  1  0
  1 12  1  0
  2 13  1  0
  2  9  1  0
  8 19  1  0
  7  8  1  0
  7  9  1  0
  7 17  1  0
  8  9  1  0
  8 18  1  0
  9 20  1  0
M  END
$$$$

     RDKit          3D

 25 25  0  0  0  0  0  0  0  0999 V2000
    0.0013    2.5148   -1.0810 C   0  0  0  0  0  0  0  0  0  0  0  0
    0.7549    1.2368   -1.4805 C   0  0  0  0  0  0  0  0  0  0  0  0
    0.2406    0.1091   -0.5665 C   0  0  0  0  0  0  0  0  0  0  0  0
    0.4860    0.0719    0.7577 C   0  0  0  0  0  0  0  0  0  0  0  0
    1.5974    0.8235    1.3879 C   0  0  0  0  0  0  0  0  0  0  0  0
   -0.3255   -0.8298    1.6500 C   0  0  0  0  0  0  0  0  0  0  0  0
   -1.2801   -1.8404    0.9619 C   0  0  0  0  0  0  0  0  0  0  0  0
   -0.7931   -2.2016   -0.4118 C   0  0  0  0  0  0  0  0  0  0  0  0
   -0.6480   -0.9085   -1.2130 C   0  0  0  0  0  0  0  0  0  0  0  0
    0.1895    3.2866   -1.8331 H   0  0  0  0  0  0  0  0  0  0  0  0
    0.3731    2.8426   -0.1216 H   0  0  0  0  0  0  0  0  0  0  0  0
   -1.1064    2.3652   -0.9595 H   0  0  0  0  0  0  0  0  0  0  0  0
    0.4841    1.0070   -2.5195 H   0  0  0  0  0  0  0  0  0  0  0  0
    1.8270    1.3748   -1.5041 H   0  0  0  0  0  0  0  0  0  0  0  0
    2.2749    1.2790    0.6649 H   0  0  0  0  0  0  0  0  0  0  0  0
    1.2851    1.6092    2.1276 H   0  0  0  0  0  0  0  0  0  0  0  0
    2.2011    0.1562    1.9781 H   0  0  0  0  0  0  0  0  0  0  0  0
    0.3065   -1.3462    2.3270 H   0  0  0  0  0  0  0  0  0  0  0  0
   -0.9710   -0.1916    2.2508 H   0  0  0  0  0  0  0  0  0  0  0  0
   -1.4662   -2.7073    1.6068 H   0  0  0  0  0  0  0  0  0  0  0  0
   -2.2987   -1.3924    0.8919 H   0  0  0  0  0  0  0  0  0  0  0  0
   -1.4896   -2.8650   -0.9277 H   0  0  0  0  0  0  0  0  0  0  0  0
    0.1691   -2.6909   -0.3441 H   0  0  0  0  0  0  0  0  0  0  0  0
   -0.1657   -1.1894   -2.1494 H   0  0  0  0  0  0  0  0  0  0  0  0
   -1.6463   -0.5135   -1.4929 H   0  0  0  0  0  0  0  0  0  0  0  0
  5 16  1  0
  5 15  1  0
  5 17  1  0
  4  5  1  0
  6 19  1  0
  6 18  1  0
  4  6  1  0
  6  7  1  0
  3  4  2  0
  1 11  1  0
  2 13  1  0
  2  3  1  0
  3  9  1  0
  7 20  1  0
  7 21  1  0
  7  8  1  0
  1  2  1  0
  2 14  1  0
  1 10  1  0
  1 12  1  0
  8 22  1  0
  8  9  1  0
  8 23  1  0
  9 24  1  0
  9 25  1  0
M  END
$$$$

     RDKit          3D

 14 15  0  0  0  0  0  0  0  0999 V2000
   -0.6918    1.4062    2.2188 O   0  0  0  0  0  0  0  0  0  0  0  0
   -0.2629    0.5881    1.4028 C   0  0  0  0  0  0  0  0  0  0  0  0
    0.8334   -0.1989    1.6426 O   0  0  0  0  0  0  0  0  0  0  0  0
    0.9743   -1.1564    0.5814 C   0  0  0  0  0  0  0  0  0  0  0  0
    0.0501   -0.8010   -0.5714 C   0  0  0  0  0  0  0  0  0  0  0  0
    0.6884    0.1484   -1.4797 O   0  0  0  0  0  0  0  0  0  0  0  0
   -0.3090    1.1460   -1.1250 C   0  0  0  0  0  0  0  0  0  0  0  0
   -0.8201    0.2774    0.0240 C   0  0  0  0  0  0  0  0  0  0  0  0
    2.0287   -1.1804    0.2662 H   0  0  0  0  0  0  0  0  0  0  0  0
    0.7265   -2.1407    0.9926 H   0  0  0  0  0  0  0  0  0  0  0  0
   -0.3931   -1.6425   -1.1425 H   0  0  0  0  0  0  0  0  0  0  0  0
   -1.0231    1.2650   -1.9630 H   0  0  0  0  0  0  0  0  0  0  0  0
    0.1205    2.1319   -0.8668 H   0  0  0  0  0  0  0  0  0  0  0  0
   -1.9218    0.1570    0.0199 H   0  0  0  0  0  0  0  0  0  0  0  0
  8 14  1  0
  4  9  1  0
  5 11  1  0
  2  8  1  0
  5  8  1  0
  7  8  1  0
  1  2  2  0
  2  3  1  0
  4  5  1  0
  5  6  1  0
  3  4  1  0
  4 10  1  0
  7 12  1  0
  6  7  1  0
  7 13  1  0
M  END
$$$$

     RDKit          3D

 21 23  0  0  0  0  0  0  0  0999 V2000
   -3.0952    0.3914    0.4508 O   0  0  0  0  0  0  0  0  0  0  0  0
   -1.6023    0.8418    0.2823 C   0  0  0  0  0  0  0  0  0  0  0  0
   -0.5968    1.5645   -0.6077 C   0  0  0  0  0  0  0  0  0  0  0  0
    0.5823    0.5474   -0.2735 C   0  0  0  0  0  0  0  0  0  0  0  0
    0.7608    0.1939    1.1632 C   0  0  0  0  0  0  0  0  0  0  0  0
    0.2335   -1.0659    0.6444 C   0  0  0  0  0  0  0  0  0  0  0  0
    1.3642   -1.5440   -0.1792 C   0  0  0  0  0  0  0  0  0  0  0  0
    1.6510   -0.2624   -0.7789 C   0  0  0  0  0  0  0  0  0  0  0  0
   -0.6677   -0.4148   -0.4006 C   0  0  0  0  0  0  0  0  0  0  0  0
   -3.6697    0.1370   -0.3862 H   0  0  0  0  0  0  0  0  0  0  0  0
   -2.1787    1.8708    0.1246 H   0  0  0  0  0  0  0  0  0  0  0  0
   -0.3169    2.5347   -0.1862 H   0  0  0  0  0  0  0  0  0  0  0  0
   -0.8467    1.6441   -1.7216 H   0  0  0  0  0  0  0  0  0  0  0  0
    0.3581    0.9994    1.7802 H   0  0  0  0  0  0  0  0  0  0  0  0
    1.7038   -0.2922    1.7897 H   0  0  0  0  0  0  0  0  0  0  0  0
   -0.3928   -1.7627    1.4051 H   0  0  0  0  0  0  0  0  0  0  0  0
    2.3144   -2.0119   -0.5191 H   0  0  0  0  0  0  0  0  0  0  0  0
    1.2705   -2.2647    0.7946 H   0  0  0  0  0  0  0  0  0  0  0  0
    2.7354    0.2692   -0.6162 H   0  0  0  0  0  0  0  0  0  0  0  0
    1.5836   -0.1912   -1.8662 H   0  0  0  0  0  0  0  0  0  0  0  0
   -1.1908   -1.1842   -0.8996 H   0  0  0  0  0  0  0  0  0  0  0  0
  2 11  1  0
  6 16  1  0
  9 21  1  0
  1  2  1  0
  1 10  1  0
  2  9  1  0
  2  3  1  0
  6  9  1  0
  4  9  1  0
  6  7  1  0
  5  6  1  0
  7 17  1  0
  7 18  1  0
  7  8  1  0
  5 14  1  0
  3 12  1  0
  4  5  1  0
  5 15  1  0
  3  4  1  0
  3 13  1  0
  4  8  1  0
  8 20  1  0
  8 19  1  0
M  END
$$$$

     RDKit          3D

 19 19  0  0  0  0  0  0  0  0999 V2000
   -1.1971    0.1674    2.1915 C   0  0  0  0  0  0  0  0  0  0  0  0
   -1.5518    0.0492    0.8166 O   0  0  0  0  0  0  0  0  0  0  0  0
   -0.8170   -0.9740    0.1277 C   0  0  0  0  0  0  0  0  0  0  0  0
    0.3837   -0.4080   -0.6509 C   0  0  0  0  0  0  0  0  0  0  0  0
    0.1617    0.9677   -1.3272 C   0  0  0  0  0  0  0  0  0  0  0  0
    1.0969    1.5055   -0.2470 C   0  0  0  0  0  0  0  0  0  0  0  0
    1.3650    0.1773    0.2670 O   0  0  0  0  0  0  0  0  0  0  0  0
    1.0370   -1.5292   -1.5515 C   0  0  0  0  0  0  0  0  0  0  0  0
    1.3226   -1.4654   -2.7479 O   0  0  0  0  0  0  0  0  0  0  0  0
   -0.1215    0.2996    2.3134 H   0  0  0  0  0  0  0  0  0  0  0  0
   -1.5347   -0.7202    2.7395 H   0  0  0  0  0  0  0  0  0  0  0  0
   -1.6977    1.0570    2.5985 H   0  0  0  0  0  0  0  0  0  0  0  0
   -0.5045   -1.7725    0.8194 H   0  0  0  0  0  0  0  0  0  0  0  0
   -1.5111   -1.4205   -0.5989 H   0  0  0  0  0  0  0  0  0  0  0  0
   -0.8581    1.3644   -1.2931 H   0  0  0  0  0  0  0  0  0  0  0  0
    0.5559    1.0551   -2.3457 H   0  0  0  0  0  0  0  0  0  0  0  0
    2.0080    1.9835   -0.6140 H   0  0  0  0  0  0  0  0  0  0  0  0
    0.6190    2.1345    0.5096 H   0  0  0  0  0  0  0  0  0  0  0  0
    1.2437   -2.4714   -1.0069 H   0  0  0  0  0  0  0  0  0  0  0  0
  6 18  1  0
  6 17  1  0
  6  7  1  0
  4  7  1  0
  5  6  1  0
  1 11  1  0
  3 14  1  0
  1 10  1  0
  1  2  1  0
  2  3  1  0
  4  5  1  0
  3  4  1  0
  4  8  1  0
  1 12  1  0
  5 16  1  0
  5 15  1  0
  3 13  1  0
  8 19  1  0
  8  9  2  0
M  END
$$$$

     RDKit          3D

 17 16  0  0  0  0  0  0  0  0999 V2000
   -0.1101   -0.2837    2.7069 C   0  0  0  0  0  0  0  0  0  0  0  0
   -0.7991   -1.4689    2.1918 N   0  0  0  0  0  0  0  0  0  0  0  0
   -0.3410   -1.7913    0.8544 C   0  0  0  0  0  0  0  0  0  0  0  0
   -1.1577   -1.3011   -0.1918 O   0  0  0  0  0  0  0  0  0  0  0  0
   -0.4379   -0.6442   -1.2231 C   0  0  0  0  0  0  0  0  0  0  0  0
   -0.2435    0.8668   -1.0510 C   0  0  0  0  0  0  0  0  0  0  0  0
    0.6933    1.5312   -2.0318 C   0  0  0  0  0  0  0  0  0  0  0  0
   -0.8517    1.5348   -0.2086 O   0  0  0  0  0  0  0  0  0  0  0  0
   -0.4833   -0.0565    3.7157 H   0  0  0  0  0  0  0  0  0  0  0  0
   -0.2896    0.6058    2.0987 H   0  0  0  0  0  0  0  0  0  0  0  0
    0.9704   -0.4588    2.7838 H   0  0  0  0  0  0  0  0  0  0  0  0
    0.7495   -1.7310    0.6850 H   0  0  0  0  0  0  0  0  0  0  0  0
    0.5377   -1.1127   -1.3897 H   0  0  0  0  0  0  0  0  0  0  0  0
   -1.0150   -0.7824   -2.1444 H   0  0  0  0  0  0  0  0  0  0  0  0
    0.7795    2.6057   -1.8048 H   0  0  0  0  0  0  0  0  0  0  0  0
    1.6855    1.0771   -1.9410 H   0  0  0  0  0  0  0  0  0  0  0  0
    0.3129    1.4093   -3.0501 H   0  0  0  0  0  0  0  0  0  0  0  0
  7 15  1  0
  5 13  1  0
  5 14  1  0
  7 16  1  0
  7 17  1  0
  6  7  1  0
  5  6  1  0
  4  5  1  0
  6  8  2  0
  3 12  1  0
  3  4  1  0
  2  3  1  0
  1 10  1  0
  1  2  1  0
  1  9  1  0
  1 11  1  0
M  END
$$$$
