@<TRIPOS>MOLECULE
generated_molecule
17 17 0 0 0
SMALL
NO_CHARGES

@<TRIPOS>ATOM
     1  C1        -0.7082      1.1880     -0.1707  C       1  LIG       0.0000
     2  C2        -0.9082      0.0969     -0.5400  C       1  LIG       0.0000
     3  N3        -0.1129      0.0545     -1.3097  N       1  LIG       0.0000
     4  C4         0.6764     -0.1596      0.1365  C       1  LIG       0.0000
     5  C5         1.9523     -1.1245      0.0470  C       1  LIG       0.0000
     6  N6         2.0591     -0.7680     -1.5504  N       1  LIG       0.0000
     7  C7        -0.9546     -0.4650      1.0847  C       1  LIG       0.0000
     8  N8         0.4610     -0.3234      2.2664  N       1  LIG       0.0000
     9  H9        -0.8510      1.5585     -1.5104  H       1  LIG       0.0000
    10  H10       -2.0644      1.3175     -0.1536  H       1  LIG       0.0000
    11  H11       -1.0015      1.8006     -0.6849  H       1  LIG       0.0000
    12  H12       -1.4296     -1.2627     -0.8458  H       1  LIG       0.0000
    13  H13        1.1147     -0.0280     -1.7286  H       1  LIG       0.0000
    14  H14        1.2838     -1.4919     -0.1845  H       1  LIG       0.0000
    15  H15       -0.5913     -1.8752      1.0124  H       1  LIG       0.0000
    16  H16        0.7982      1.1343      1.8768  H       1  LIG       0.0000
    17  H17        0.2761      0.3481      2.2546  H       1  LIG       0.0000
@<TRIPOS>BOND
    1     3    13  1
    2     1    10  1
    3     2     3  1
    4     3     4  1
    5     1     9  1
    6     1     2  1
    7     1    11  1
    8     2    12  1
    9     2     7  1
   10     4    14  1
   11     4     5  1
   12     4     7  1
   13     5     6  3
   14     7     8  1
   15     7    15  1
   16     8    17  1
   17     8    16  1
