@<TRIPOS>MOLECULE
generated_molecule
17 17 0 0 0
SMALL
NO_CHARGES

@<TRIPOS>ATOM
     1  O1         0.5546      1.4934     -1.9136  O       1  LIG       0.0000
     2  C2        -0.3271      1.2892     -0.5970  C       1  LIG       0.0000
     3  N3         0.2793     -0.2255     -1.1665  N       1  LIG       0.0000
     4  C4        -0.2114     -0.5962      0.4849  C       1  LIG       0.0000
     5  C5        -1.4028     -0.2491      0.1465  C       1  LIG       0.0000
     6  N6        -0.6699     -1.0842      1.4457  N       1  LIG       0.0000
     7  C7         1.4775      1.7586      0.2949  C       1  LIG       0.0000
     8  C8        -0.3012      0.3983      0.5184  C       1  LIG       0.0000
     9  C9        -0.0112      0.9930      1.1600  C       1  LIG       0.0000
    10  H10       -0.4657      0.6956     -1.7214  H       1  LIG       0.0000
    11  H11       -0.3091     -0.9234      0.4396  H       1  LIG       0.0000
    12  H12       -0.5777     -1.3470      0.0783  H       1  LIG       0.0000
    13  H13        1.6439      1.3865     -1.1492  H       1  LIG       0.0000
    14  H14       -0.4854     -0.9822      1.1592  H       1  LIG       0.0000
    15  H15        0.2409     -1.5327     -0.1721  H       1  LIG       0.0000
    16  H16        0.5785      0.0497      0.7011  H       1  LIG       0.0000
    17  H17       -0.0132     -1.1240      0.2912  H       1  LIG       0.0000
@<TRIPOS>BOND
    1     8    15  1
    2     8    14  1
    3     8     9  1
    4     7     8  1
    5     1     2  2
    6     5     6  3
    7     9    16  1
    8     7     9  1
    9     9    17  1
   10     2     7  1
   11     2     3  1
   12     4    12  1
   13     7    13  1
   14     4     5  1
   15     3     4  1
   16     4    11  1
   17     3    10  1
