@<TRIPOS>MOLECULE
generated_molecule
17 19 0 0 0
SMALL
NO_CHARGES

@<TRIPOS>ATOM
     1  O1        -1.5375     -1.9107      0.2606  O       1  LIG       0.0000
     2  C2        -0.6576     -1.0734     -0.6426  C       1  LIG       0.0000
     3  C3        -0.5873     -0.0366     -0.7179  C       1  LIG       0.0000
     4  C4        -0.1679      1.1195     -0.0143  C       1  LIG       0.0000
     5  N5        -0.1930      1.2619     -0.8734  N       1  LIG       0.0000
     6  C6         0.3612     -0.6042     -0.4541  C       1  LIG       0.0000
     7  C7        -0.6322     -0.6724      0.5598  C       1  LIG       0.0000
     8  C8         0.5269     -0.7036      0.3406  C       1  LIG       0.0000
     9  N9        -1.0039     -0.9093      0.6591  N       1  LIG       0.0000
    10  H10        0.3691      1.9598      1.0217  H       1  LIG       0.0000
    11  H11        0.3658      0.9793      1.4391  H       1  LIG       0.0000
    12  H12        1.2677      0.4011     -0.9459  H       1  LIG       0.0000
    13  H13        0.8618      0.8073     -0.5606  H       1  LIG       0.0000
    14  H14       -0.8660     -0.4642     -0.8123  H       1  LIG       0.0000
    15  H15        0.6941     -1.2764     -0.0918  H       1  LIG       0.0000
    16  H16        1.7109      0.2495      0.4053  H       1  LIG       0.0000
    17  H17       -0.5122      0.8721      0.4267  H       1  LIG       0.0000
@<TRIPOS>BOND
    1     4    11  1
    2     9    17  1
    3     4    10  1
    4     7     9  1
    5     8     9  1
    6     3     4  1
    7     4     5  1
    8     1     2  2
    9     6    13  1
   10     2     3  1
   11     2     7  1
   12     3     6  1
   13     3     5  1
   14     6     7  1
   15     7     8  1
   16     6    14  1
   17     8    16  1
   18     8    15  1
   19     5    12  1
