@<TRIPOS>MOLECULE
generated_molecule
21 22 0 0 0
SMALL
NO_CHARGES

@<TRIPOS>ATOM
     1  C1         0.6072      2.1908     -0.9078  C       1  LIG       0.0000
     2  C2         1.1945      1.2216     -0.1632  C       1  LIG       0.0000
     3  C3         0.3597      0.3121      0.4625  C       1  LIG       0.0000
     4  C4        -0.3211     -1.3641      0.8294  C       1  LIG       0.0000
     5  C5         0.0184     -1.7452     -0.4265  C       1  LIG       0.0000
     6  C6        -1.8959     -1.0033      1.0627  C       1  LIG       0.0000
     7  O7        -1.5162     -0.1023      0.6109  O       1  LIG       0.0000
     8  C8         0.2397     -0.3315     -1.4199  C       1  LIG       0.0000
     9  O9        -0.2943      1.0848     -0.7878  O       1  LIG       0.0000
    10  H10       -1.0263      1.8867     -1.1360  H       1  LIG       0.0000
    11  H11        1.3818      2.1216     -0.0994  H       1  LIG       0.0000
    12  H12       -0.9082      1.7113     -1.0355  H       1  LIG       0.0000
    13  H13        2.2657      0.8234     -0.0128  H       1  LIG       0.0000
    14  H14        1.5973      1.1943      0.0095  H       1  LIG       0.0000
    15  H15        0.0838     -2.1512      1.4610  H       1  LIG       0.0000
    16  H16       -0.5233     -0.2119      1.6320  H       1  LIG       0.0000
    17  H17       -0.1166     -2.6892      0.9846  H       1  LIG       0.0000
    18  H18       -1.7460     -0.3793     -0.1813  H       1  LIG       0.0000
    19  H19       -1.0043     -1.1518      2.1459  H       1  LIG       0.0000
    20  H20        0.2512     -0.9710     -2.1385  H       1  LIG       0.0000
    21  H21        1.3530     -0.4459     -0.8896  H       1  LIG       0.0000
@<TRIPOS>BOND
    1     6    18  1
    2     6    19  1
    3     5     6  1
    4     6     7  1
    5     5    17  1
    6     8    21  1
    7     5     8  1
    8     4     5  1
    9     3     7  1
   10     8    20  1
   11     8     9  1
   12     4    16  1
   13     3     4  1
   14     4    15  1
   15     3     9  1
   16     2     3  1
   17     1    11  1
   18     1     2  1
   19     2    14  1
   20     2    13  1
   21     1    10  1
   22     1    12  1
