@<TRIPOS>MOLECULE
generated_molecule
16 17 0 0 0
SMALL
NO_CHARGES

@<TRIPOS>ATOM
     1  O1        -0.4303     -3.1659     -0.4653  O       1  LIG       0.0000
     2  C2         0.6671     -2.0675     -0.4062  C       1  LIG       0.0000
     3  C3        -1.1251     -1.3846      0.6508  C       1  LIG       0.0000
     4  C4         0.1665     -0.4668     -0.0018  C       1  LIG       0.0000
     5  C5        -0.1697      1.4868      0.0219  C       1  LIG       0.0000
     6  C6         0.4795      1.9409     -0.3352  C       1  LIG       0.0000
     7  C7         1.2384      0.5092     -0.5965  C       1  LIG       0.0000
     8  O8         0.3152     -1.4764      0.8269  O       1  LIG       0.0000
     9  H9        -1.5611      0.1022      0.2379  H       1  LIG       0.0000
    10  H10       -1.9715     -0.7123     -0.4031  H       1  LIG       0.0000
    11  H11       -0.9876      1.3026      1.2618  H       1  LIG       0.0000
    12  H12       -0.2226      1.0380      1.3563  H       1  LIG       0.0000
    13  H13        1.8781      1.9315      0.1708  H       1  LIG       0.0000
    14  H14       -0.8604      1.6284     -0.9602  H       1  LIG       0.0000
    15  H15        0.6002     -0.8393     -0.6002  H       1  LIG       0.0000
    16  H16        1.9833      0.1731     -0.7578  H       1  LIG       0.0000
@<TRIPOS>BOND
    1     1     2  2
    2     3     9  1
    3     5    12  1
    4     2     3  1
    5     2     8  1
    6     3     4  1
    7     3    10  1
    8     5    11  1
    9     4     8  1
   10     4     5  1
   11     5     6  1
   12     4     7  1
   13     6    14  1
   14     6     7  1
   15     6    13  1
   16     7    16  1
   17     7    15  1
