@<TRIPOS>MOLECULE
generated_molecule
14 13 0 0 0
SMALL
NO_CHARGES

@<TRIPOS>ATOM
     1  O1         1.9257     -0.6587     -0.2332  O       1  LIG       0.0000
     2  C2         1.2825      0.4745      1.1670  C       1  LIG       0.0000
     3  C3        -0.1504      0.0152      1.5322  C       1  LIG       0.0000
     4  C4        -0.0352     -0.4384     -0.1853  C       1  LIG       0.0000
     5  C5        -0.8068      1.1898      0.4334  C       1  LIG       0.0000
     6  C6        -1.4485      0.4556     -0.5326  C       1  LIG       0.0000
     7  F7        -1.0995     -0.7427     -1.2335  F       1  LIG       0.0000
     8  F8        -0.9061     -1.4135     -0.2832  F       1  LIG       0.0000
     9  F9        -0.6000     -0.6410     -1.5159  F       1  LIG       0.0000
    10  H10        2.1238      1.4055     -0.7353  H       1  LIG       0.0000
    11  H11        0.8418     -1.0076      0.2551  H       1  LIG       0.0000
    12  H12        1.2017      0.7132     -0.4659  H       1  LIG       0.0000
    13  H13       -1.0143      0.8664      0.9759  H       1  LIG       0.0000
    14  H14       -1.3148     -0.2183      0.8214  H       1  LIG       0.0000
@<TRIPOS>BOND
    1     6     8  1
    2     2    11  1
    3     3    14  1
    4     5     6  1
    5     6     7  1
    6     6     9  1
    7     4     5  3
    8     1     2  1
    9     2     3  1
   10     2    12  1
   11     3     4  1
   12     1    10  1
   13     3    13  1
