@<TRIPOS>MOLECULE
generated_molecule
18 18 0 0 0
SMALL
NO_CHARGES

@<TRIPOS>ATOM
     1  C1        -1.4819      1.1708     -0.5532  C       1  LIG       0.0000
     2  C2         0.2089      0.3576     -0.2637  C       1  LIG       0.0000
     3  C3        -0.8273      1.4759     -0.9375  C       1  LIG       0.0000
     4  O4         0.3449     -0.9054     -1.2479  O       1  LIG       0.0000
     5  C5         1.6968     -0.7279     -0.0274  C       1  LIG       0.0000
     6  C6         1.4896     -0.7683      1.6171  C       1  LIG       0.0000
     7  C7         1.4196     -1.3179      1.4622  C       1  LIG       0.0000
     8  C8         1.0119     -1.8211      2.1746  C       1  LIG       0.0000
     9  H9        -1.7983      0.9264      0.6984  H       1  LIG       0.0000
    10  H10       -2.1651      1.2745     -0.1266  H       1  LIG       0.0000
    11  H11       -2.0170      0.5966     -0.1695  H       1  LIG       0.0000
    12  H12       -1.5548      0.7555     -1.2414  H       1  LIG       0.0000
    13  H13       -0.3520      1.6155     -1.7328  H       1  LIG       0.0000
    14  H14       -1.7844      1.4363     -0.5588  H       1  LIG       0.0000
    15  H15        3.0711     -0.3113      0.5341  H       1  LIG       0.0000
    16  H16        1.3188     -1.1043     -1.4667  H       1  LIG       0.0000
    17  H17        0.0662     -0.7348      1.1321  H       1  LIG       0.0000
    18  H18        1.3530     -1.9182      0.7071  H       1  LIG       0.0000
@<TRIPOS>BOND
    1     3    12  1
    2     1    10  1
    3     2     4  1
    4     4     5  1
    5     3    13  1
    6     2     3  1
    7     3    14  1
    8     1     2  1
    9     1     9  1
   10     1    11  1
   11     2     6  1
   12     5    15  1
   13     5    16  1
   14     5     6  1
   15     6    17  1
   16     6     7  1
   17     7     8  3
   18     8    18  1
