@<TRIPOS>MOLECULE
generated_molecule
18 18 0 0 0
SMALL
NO_CHARGES

@<TRIPOS>ATOM
     1  C1        -0.0093      1.5812      1.5207  C       1  LIG       0.0000
     2  C2         0.6746      1.3151      0.1788  C       1  LIG       0.0000
     3  C3        -0.5592     -0.0195     -0.2037  C       1  LIG       0.0000
     4  O4        -0.2888     -0.2727     -0.9053  O       1  LIG       0.0000
     5  C5        -0.1368     -0.8806     -1.9672  C       1  LIG       0.0000
     6  C6         0.1504     -1.8555     -0.6326  C       1  LIG       0.0000
     7  O7         0.8401     -1.2686      0.2957  O       1  LIG       0.0000
     8  C8        -1.6854      1.3328      0.2159  C       1  LIG       0.0000
     9  N9        -1.6222      0.9453      1.6053  N       1  LIG       0.0000
    10  H10        1.0206      1.5603      1.0274  H       1  LIG       0.0000
    11  H11       -0.8044      1.4614      1.3827  H       1  LIG       0.0000
    12  H12        0.2219      2.4265      0.8985  H       1  LIG       0.0000
    13  H13        0.1361      1.1079     -0.5106  H       1  LIG       0.0000
    14  H14        1.6095      0.2560      0.5928  H       1  LIG       0.0000
    15  H15        0.7694     -1.7546     -2.5565  H       1  LIG       0.0000
    16  H16       -0.3988     -2.0102     -2.6890  H       1  LIG       0.0000
    17  H17       -0.7582     -2.0606      0.4220  H       1  LIG       0.0000
    18  H18        0.8405     -1.8641      1.3252  H       1  LIG       0.0000
@<TRIPOS>BOND
    1     8     9  3
    2     3     8  1
    3     6    17  1
    4     5    15  1
    5     5     6  1
    6     3     6  1
    7     6     7  1
    8     4     5  1
    9     5    16  1
   10     3     4  1
   11     2     3  1
   12     7    18  1
   13     1    11  1
   14     2    14  1
   15     1     2  1
   16     2    13  1
   17     1    10  1
   18     1    12  1
