@<TRIPOS>MOLECULE
generated_molecule
16 16 0 0 0
SMALL
NO_CHARGES

@<TRIPOS>ATOM
     1  O1        -1.6083     -1.0841      2.7824  O       1  LIG       0.0000
     2  C2        -0.9989     -0.6955      1.9449  C       1  LIG       0.0000
     3  C3        -0.1176      0.3566      1.6106  C       1  LIG       0.0000
     4  C4         0.0480     -0.2398      0.1941  C       1  LIG       0.0000
     5  C5        -0.1661     -0.0140     -1.1785  C       1  LIG       0.0000
     6  N6         0.5575      0.8983     -0.4073  N       1  LIG       0.0000
     7  N7         1.4429      1.7904     -1.4713  N       1  LIG       0.0000
     8  N8         0.3101      1.3684     -1.7939  N       1  LIG       0.0000
     9  C9         0.6702     -0.2902     -2.4615  C       1  LIG       0.0000
    10  H10       -1.1501     -1.9259      1.1663  H       1  LIG       0.0000
    11  H11       -0.2296     -1.5949      1.1866  H       1  LIG       0.0000
    12  H12       -0.1481      1.6237      0.7660  H       1  LIG       0.0000
    13  H13        0.2628      1.2042     -0.2045  H       1  LIG       0.0000
    14  H14        0.4003     -0.8123      0.6834  H       1  LIG       0.0000
    15  H15        1.5586     -0.1755     -0.5385  H       1  LIG       0.0000
    16  H16       -0.8318     -0.4095     -2.2787  H       1  LIG       0.0000
@<TRIPOS>BOND
    1     9    16  1
    2     8     9  ar
    3     5     9  ar
    4     4    13  1
    5     7     8  ar
    6     4     5  1
    7     5     6  ar
    8     4    14  1
    9     3     4  1
   10     6     7  ar
   11     7    15  1
   12     3    12  1
   13     1     2  2
   14     2     3  1
   15     3    11  1
   16     2    10  1
