@<TRIPOS>MOLECULE
generated_molecule
12 12 0 0 0
SMALL
NO_CHARGES

@<TRIPOS>ATOM
     1  F1         1.9542     -1.5112     -0.2577  F       1  LIG       0.0000
     2  C2         0.6127     -0.6305     -0.5792  C       1  LIG       0.0000
     3  C3         0.0329     -0.2649      0.0034  C       1  LIG       0.0000
     4  C4        -1.3979      1.0819      0.8461  C       1  LIG       0.0000
     5  C5        -2.1780     -0.6158      0.9190  C       1  LIG       0.0000
     6  O6        -2.3345     -1.4967     -0.7405  O       1  LIG       0.0000
     7  N7         0.6636      0.8069      0.6961  N       1  LIG       0.0000
     8  C8         1.0500      1.2878     -0.4769  C       1  LIG       0.0000
     9  N9         1.3741      0.9076      0.2666  N       1  LIG       0.0000
    10  H10       -0.0971      0.2791     -1.3940  H       1  LIG       0.0000
    11  H11       -1.5795     -0.9363      0.1003  H       1  LIG       0.0000
    12  H12        1.8996      1.0921      0.6168  H       1  LIG       0.0000
@<TRIPOS>BOND
    1     1     2  1
    2     2     3  ar
    3     2     9  ar
    4     3     4  ar
    5     3    10  1
    6     4     5  1
    7     4     7  ar
    8     5     6  2
    9     5    11  1
   10     7     8  ar
   11     8     9  ar
   12     8    12  1
