@<TRIPOS>MOLECULE
generated_molecule
18 17 0 0 0
SMALL
NO_CHARGES

@<TRIPOS>ATOM
     1  C1        -1.8854      0.6704     -0.2747  C       1  LIG       0.0000
     2  C2        -0.0067      0.9119      1.0498  C       1  LIG       0.0000
     3  C3         0.5415     -0.6382      0.4702  C       1  LIG       0.0000
     4  C4        -0.8929     -1.1939     -0.5851  C       1  LIG       0.0000
     5  C5         1.1288     -0.0945     -1.0325  C       1  LIG       0.0000
     6  C6         1.6132     -1.2517     -0.6148  C       1  LIG       0.0000
     7  N7         2.6023     -0.1267     -0.4278  N       1  LIG       0.0000
     8  H8        -2.4833      2.0599     -0.1890  H       1  LIG       0.0000
     9  H9        -0.7109      1.2352     -0.2109  H       1  LIG       0.0000
    10  H10       -1.6348      1.6930      0.3576  H       1  LIG       0.0000
    11  H11       -1.1795      0.3404      1.6842  H       1  LIG       0.0000
    12  H12       -0.2289     -0.4366      1.7534  H       1  LIG       0.0000
    13  H13       -0.4667     -0.3300     -0.6422  H       1  LIG       0.0000
    14  H14       -2.0396     -0.5796      0.1972  H       1  LIG       0.0000
    15  H15       -0.4124     -1.8741      0.0512  H       1  LIG       0.0000
    16  H16        1.7123     -0.2974     -0.5634  H       1  LIG       0.0000
    17  H17        1.8616     -0.3337      0.2668  H       1  LIG       0.0000
    18  H18        2.4813      0.2454     -1.2899  H       1  LIG       0.0000
@<TRIPOS>BOND
    1     5    16  1
    2     5    17  1
    3     5    18  1
    4     3     5  1
    5     2    11  1
    6     1     9  1
    7     6     7  3
    8     1     8  1
    9     1     2  1
   10     2     3  1
   11     2    12  1
   12     3     6  1
   13     1    10  1
   14     3     4  1
   15     4    13  1
   16     4    14  1
   17     4    15  1
