@<TRIPOS>MOLECULE
generated_molecule
17 17 0 0 0
SMALL
NO_CHARGES

@<TRIPOS>ATOM
     1  N1         0.1667      1.5665      0.9354  N       1  LIG       0.0000
     2  H2         1.1578      1.4078     -0.7641  H       1  LIG       0.0000
     3  H3         1.1610      0.2133     -2.4530  H       1  LIG       0.0000
     4  H4         0.6867      2.3008      0.3097  H       1  LIG       0.0000
     5  C5        -0.1444      0.1558      1.2680  C       1  LIG       0.0000
     6  C6        -0.4835     -1.4188      1.0461  C       1  LIG       0.0000
     7  C7        -0.4885     -0.8907      0.3686  C       1  LIG       0.0000
     8  C8        -0.3636      0.7068      0.1486  C       1  LIG       0.0000
     9  C9         1.0609      1.3912     -0.5319  C       1  LIG       0.0000
    10  O10        0.9703      1.3075     -0.5896  O       1  LIG       0.0000
    11  O11        0.8723      0.7079     -2.1436  O       1  LIG       0.0000
    12  H12       -0.1855     -1.2318      1.7178  H       1  LIG       0.0000
    13  H13       -1.9240     -1.2684      0.5862  H       1  LIG       0.0000
    14  H14       -1.8075     -1.9649      1.1174  H       1  LIG       0.0000
    15  H15       -0.9253     -2.3130      0.4362  H       1  LIG       0.0000
    16  H16        0.4587     -1.6822     -0.5291  H       1  LIG       0.0000
    17  H17       -0.2122      1.0122     -0.9226  H       1  LIG       0.0000
@<TRIPOS>BOND
    1     1     2  1
    2     1     4  1
    3     1     5  1
    4     3    11  1
    5     6    14  1
    6     5     6  1
    7     5    12  1
    8     5     8  1
    9     6    13  1
   10     9    11  1
   11     6     7  1
   12     8     9  1
   13     9    10  2
   14     7     8  1
   15     8    17  1
   16     7    16  1
   17     7    15  1
