@<TRIPOS>MOLECULE
generated_molecule
17 17 0 0 0
SMALL
NO_CHARGES

@<TRIPOS>ATOM
     1  O1         2.7753      1.0570     -0.3007  O       1  LIG       0.0000
     2  C2         0.6694      1.6325      0.7650  C       1  LIG       0.0000
     3  C3         0.2355     -0.1039      1.5349  C       1  LIG       0.0000
     4  C4        -0.4735      0.7688      0.5891  C       1  LIG       0.0000
     5  O5        -2.3359      0.3915     -0.7353  O       1  LIG       0.0000
     6  C6        -1.2594     -0.5990     -1.7517  C       1  LIG       0.0000
     7  O7        -1.0678     -2.2923     -0.2153  O       1  LIG       0.0000
     8  C8        -0.3373     -1.0755      0.6441  C       1  LIG       0.0000
     9  O9         0.4506     -0.8239     -0.3452  O       1  LIG       0.0000
    10  H10        1.7848      2.1446     -0.2122  H       1  LIG       0.0000
    11  H11        1.6044      0.8701     -0.0554  H       1  LIG       0.0000
    12  H12        1.6950      0.9395      0.0331  H       1  LIG       0.0000
    13  H13       -0.5949     -0.1824      0.2737  H       1  LIG       0.0000
    14  H14       -1.8179      1.4581      0.4876  H       1  LIG       0.0000
    15  H15       -1.6445     -1.3990     -0.1718  H       1  LIG       0.0000
    16  H16       -0.2394     -0.6155     -0.6621  H       1  LIG       0.0000
    17  H17        0.5555     -2.1705      0.1224  H       1  LIG       0.0000
@<TRIPOS>BOND
    1     4    13  1
    2     4     5  1
    3     5     6  1
    4     4    14  1
    5     3     4  1
    6     2    11  1
    7     6     7  2
    8     6    15  1
    9     1    10  1
   10     2     3  1
   11     3     8  1
   12     3     9  1
   13     1     2  1
   14     2    12  1
   15     8    16  1
   16     8    17  1
   17     8     9  1
