@<TRIPOS>MOLECULE
generated_molecule
18 20 0 0 0
SMALL
NO_CHARGES

@<TRIPOS>ATOM
     1  O1        -1.1805     -1.8773     -0.6435  O       1  LIG       0.0000
     2  C2        -0.7481     -0.8927      0.0288  C       1  LIG       0.0000
     3  C3        -1.7012      0.5437     -0.1270  C       1  LIG       0.0000
     4  N4        -1.1095      1.0611      0.8551  N       1  LIG       0.0000
     5  C5         0.0532     -0.1360     -0.3823  C       1  LIG       0.0000
     6  C6         1.7029      0.5008     -0.4065  C       1  LIG       0.0000
     7  C7         0.2287      0.2350      0.3269  C       1  LIG       0.0000
     8  C8         0.6384     -1.2487      0.0136  C       1  LIG       0.0000
     9  C9         1.9012     -0.7115      0.2924  C       1  LIG       0.0000
    10  H10       -1.9215     -1.0112     -0.1570  H       1  LIG       0.0000
    11  H11       -2.9732     -0.1519      0.0363  H       1  LIG       0.0000
    12  H12        0.3943      1.3856      1.0397  H       1  LIG       0.0000
    13  H13        1.4949      0.7305     -1.8833  H       1  LIG       0.0000
    14  H14       -0.4608      0.8976     -0.6369  H       1  LIG       0.0000
    15  H15       -0.6847      1.6440     -0.1513  H       1  LIG       0.0000
    16  H16        0.6306     -0.6774      0.5441  H       1  LIG       0.0000
    17  H17        2.4723      0.5816     -0.4571  H       1  LIG       0.0000
    18  H18        1.2630     -0.8732      1.7080  H       1  LIG       0.0000
@<TRIPOS>BOND
    1     8    16  1
    2     7     8  1
    3     8     9  1
    4     5     8  1
    5     7    14  1
    6     7    15  1
    7     6     7  1
    8     3    10  1
    9     9    18  1
   10     1     2  2
   11     9    17  1
   12     6     9  1
   13     4    12  1
   14     2     5  1
   15     2     3  1
   16     4     5  1
   17     5     6  1
   18     3     4  1
   19     3    11  1
   20     6    13  1
