@<TRIPOS>MOLECULE
generated_molecule
20 20 0 0 0
SMALL
NO_CHARGES

@<TRIPOS>ATOM
     1  C1         0.9622      2.3515      1.2175  C       1  LIG       0.0000
     2  O2        -0.2784      1.6506      0.3595  O       1  LIG       0.0000
     3  C3         0.4293      0.3851      0.7566  C       1  LIG       0.0000
     4  C4        -0.2006     -0.7873     -0.2656  C       1  LIG       0.0000
     5  C5        -0.4332     -1.9622     -0.1664  C       1  LIG       0.0000
     6  N6         0.8854     -1.6892     -0.3899  N       1  LIG       0.0000
     7  C7         0.4117     -0.1004      0.2283  C       1  LIG       0.0000
     8  C8        -1.0146     -1.6007     -1.3787  C       1  LIG       0.0000
     9  O9        -0.8121     -1.9211     -2.1672  O       1  LIG       0.0000
    10  H10       -0.5462      2.4177      1.3336  H       1  LIG       0.0000
    11  H11        0.5958      3.3913      1.4843  H       1  LIG       0.0000
    12  H12        1.1797      2.9033      0.0246  H       1  LIG       0.0000
    13  H13       -1.0386      0.3461      0.4981  H       1  LIG       0.0000
    14  H14        0.1012      0.2428      1.9983  H       1  LIG       0.0000
    15  H15        0.6893     -2.9136     -0.4172  H       1  LIG       0.0000
    16  H16        0.2718     -3.2298     -0.3280  H       1  LIG       0.0000
    17  H17        0.2627     -0.7257     -0.0640  H       1  LIG       0.0000
    18  H18       -0.0311      1.3406     -0.6041  H       1  LIG       0.0000
    19  H19       -0.9666      0.9306      0.0462  H       1  LIG       0.0000
    20  H20       -0.4677     -1.0296     -2.1658  H       1  LIG       0.0000
@<TRIPOS>BOND
    1     8     9  2
    2     1    10  1
    3     1    12  1
    4     8    20  1
    5     4     8  1
    6     1    11  1
    7     1     2  1
    8     3    13  1
    9     3     4  1
   10     4     6  1
   11     4     5  1
   12     2     3  1
   13     3    14  1
   14     5     6  1
   15     6     7  1
   16     5    15  1
   17     5    16  1
   18     7    18  1
   19     7    19  1
   20     7    17  1
