@<TRIPOS>MOLECULE
generated_molecule
17 16 0 0 0
SMALL
NO_CHARGES

@<TRIPOS>ATOM
     1  C1        -0.0210     -1.1831      0.0993  C       1  LIG       0.0000
     2  C2         1.5363      0.0119     -0.3860  C       1  LIG       0.0000
     3  C3        -1.1581      1.1960     -0.3498  C       1  LIG       0.0000
     4  C4        -1.2656      1.2540      0.0681  C       1  LIG       0.0000
     5  C5         0.5451      1.0187      0.3858  C       1  LIG       0.0000
     6  C6         0.0071     -0.1775      0.6004  C       1  LIG       0.0000
     7  C7         0.4339     -0.1142      1.4777  C       1  LIG       0.0000
     8  C8         0.3170     -0.3425      0.3137  C       1  LIG       0.0000
     9  C9         0.9460     -0.4035     -0.7194  C       1  LIG       0.0000
    10  H10        0.0677     -1.0817     -0.3777  H       1  LIG       0.0000
    11  H11       -0.7130      0.3160     -0.3975  H       1  LIG       0.0000
    12  H12       -1.1648      1.1142     -1.2192  H       1  LIG       0.0000
    13  H13       -0.5840      0.1448     -0.6608  H       1  LIG       0.0000
    14  H14        0.0694      1.2535      0.6705  H       1  LIG       0.0000
    15  H15       -0.0002      1.2193      0.0839  H       1  LIG       0.0000
    16  H16        0.1488     -2.0604      1.3222  H       1  LIG       0.0000
    17  H17        0.8354     -2.1656     -0.9112  H       1  LIG       0.0000
@<TRIPOS>BOND
    1     4    14  1
    2     5    15  1
    3     3    11  1
    4     9    17  1
    5     8     9  3
    6     5     8  1
    7     1    10  1
    8     1     2  3
    9     2     3  1
   10     3     4  1
   11     4     5  1
   12     4    13  1
   13     3    12  1
   14     5     6  1
   15     6     7  3
   16     7    16  1
