@<TRIPOS>MOLECULE
generated_molecule
20 21 0 0 0
SMALL
NO_CHARGES

@<TRIPOS>ATOM
     1  C1        -1.4259      1.5672      1.4683  C       1  LIG       0.0000
     2  C2        -0.4955     -0.1068      1.2328  C       1  LIG       0.0000
     3  N3        -0.2144     -0.7616      0.4258  N       1  LIG       0.0000
     4  C4         0.9227     -0.6450      0.4684  C       1  LIG       0.0000
     5  C5         0.7356     -1.1047     -0.0593  C       1  LIG       0.0000
     6  C6         0.3986     -1.5114     -0.7521  C       1  LIG       0.0000
     7  O7         0.8037     -0.5330     -0.5183  O       1  LIG       0.0000
     8  C8         0.2575     -0.9400     -1.4823  C       1  LIG       0.0000
     9  O9        -0.7306      0.3242     -1.8637  O       1  LIG       0.0000
    10  H10       -0.2770      2.5494      0.7190  H       1  LIG       0.0000
    11  H11       -0.9098      1.5843      2.1895  H       1  LIG       0.0000
    12  H12        0.1508      2.1070     -0.0733  H       1  LIG       0.0000
    13  H13        0.5983      0.9383      1.1127  H       1  LIG       0.0000
    14  H14       -1.7059     -0.4900      1.5789  H       1  LIG       0.0000
    15  H15       -0.1475     -0.6099      0.9679  H       1  LIG       0.0000
    16  H16        1.5521     -0.7731     -1.2562  H       1  LIG       0.0000
    17  H17       -0.8438     -2.6105     -1.2553  H       1  LIG       0.0000
    18  H18        1.2953      0.2731      0.8654  H       1  LIG       0.0000
    19  H19        0.3287      0.0032     -2.6552  H       1  LIG       0.0000
    20  H20       -0.2930      0.7392     -1.1129  H       1  LIG       0.0000
@<TRIPOS>BOND
    1     9    20  1
    2     8     9  1
    3     8    19  1
    4     4     8  1
    5     6     8  1
    6     4    15  1
    7     1    11  1
    8     3     4  1
    9     4     5  1
   10     7    18  1
   11     6     7  1
   12     6    17  1
   13     5     6  1
   14     1    10  1
   15     1    12  1
   16     1     2  1
   17     2    13  1
   18     3     5  1
   19     2     3  1
   20     5    16  1
   21     2    14  1
