@<TRIPOS>MOLECULE
generated_molecule
18 19 0 0 0
SMALL
NO_CHARGES

@<TRIPOS>ATOM
     1  C1         0.9763      1.6065      0.0466  C       1  LIG       0.0000
     2  O2         1.3781      0.4939      0.6682  O       1  LIG       0.0000
     3  C3        -0.1863      0.4705     -0.0266  C       1  LIG       0.0000
     4  C4        -1.2610     -0.0431     -1.3258  C       1  LIG       0.0000
     5  C5        -1.4162     -0.3150      0.0115  C       1  LIG       0.0000
     6  C6        -0.7549     -2.1084      0.3847  C       1  LIG       0.0000
     7  O7         0.1910     -3.0803      0.4753  O       1  LIG       0.0000
     8  C8         0.2363     -2.0492      0.1695  C       1  LIG       0.0000
     9  N9         1.1693     -0.8128      0.3892  N       1  LIG       0.0000
    10  H10        0.8989      2.6026      0.4755  H       1  LIG       0.0000
    11  H11       -0.0433      2.5721     -1.1958  H       1  LIG       0.0000
    12  H12        1.4979      2.4842     -0.7016  H       1  LIG       0.0000
    13  H13       -0.2421      1.4625      0.9522  H       1  LIG       0.0000
    14  H14       -0.6478      1.3128     -1.4343  H       1  LIG       0.0000
    15  H15       -0.5097     -1.3860     -1.3027  H       1  LIG       0.0000
    16  H16       -0.9445     -2.5323      1.8073  H       1  LIG       0.0000
    17  H17       -0.8477     -1.9830      0.6891  H       1  LIG       0.0000
    18  H18        0.5057      1.3049     -0.0823  H       1  LIG       0.0000
@<TRIPOS>BOND
    1     9    18  1
    2     8     9  1
    3     7     8  1
    4     5     8  1
    5     6     7  1
    6     3    13  1
    7     5     6  1
    8     3     5  1
    9     4     5  1
   10     4    14  1
   11     6    17  1
   12     6    16  1
   13     3     4  1
   14     2     3  1
   15     4    15  1
   16     1    10  1
   17     1    11  1
   18     1     2  1
   19     1    12  1
