@<TRIPOS>MOLECULE
generated_molecule
19 20 0 0 0
SMALL
NO_CHARGES

@<TRIPOS>ATOM
     1  C1         0.2262      2.2901     -0.3218  C       1  LIG       0.0000
     2  C2        -0.9499      1.0501     -0.5750  C       1  LIG       0.0000
     3  C3         0.6844      0.6045     -1.0138  C       1  LIG       0.0000
     4  C4         0.4415     -1.0165     -0.9330  C       1  LIG       0.0000
     5  C5        -0.4516     -1.3909      0.2113  C       1  LIG       0.0000
     6  C6         1.2702     -1.4210      0.9028  C       1  LIG       0.0000
     7  O7         0.9235     -2.8825      0.4780  O       1  LIG       0.0000
     8  C8        -1.0349      0.4499      0.8621  C       1  LIG       0.0000
     9  O9        -0.4093     -0.0325      0.5486  O       1  LIG       0.0000
    10  H10       -0.8710      3.0575     -0.0833  H       1  LIG       0.0000
    11  H11       -0.1963      2.7240      0.4055  H       1  LIG       0.0000
    12  H12       -0.1471      2.3342     -1.6109  H       1  LIG       0.0000
    13  H13       -0.2321      0.9646     -1.8510  H       1  LIG       0.0000
    14  H14        0.2066      0.2264     -0.5902  H       1  LIG       0.0000
    15  H15       -0.9823     -1.6570     -0.3506  H       1  LIG       0.0000
    16  H16        0.7515     -2.0207     -0.2072  H       1  LIG       0.0000
    17  H17       -0.4393     -1.1568      1.4703  H       1  LIG       0.0000
    18  H18        0.7680     -2.0497      1.3529  H       1  LIG       0.0000
    19  H19        0.4419     -0.0738      1.3054  H       1  LIG       0.0000
@<TRIPOS>BOND
    1     3    14  1
    2     1    11  1
    3     4    16  1
    4     3    13  1
    5     2     3  1
    6     3     4  1
    7     1     2  1
    8     1    10  1
    9     1    12  1
   10     2     9  1
   11     8     9  1
   12     2     8  1
   13     4    15  1
   14     4     5  1
   15     6    18  1
   16     5     8  1
   17     8    19  1
   18     5     6  1
   19     5    17  1
   20     6     7  2
