@<TRIPOS>MOLECULE
generated_molecule
19 20 0 0 0
SMALL
NO_CHARGES

@<TRIPOS>ATOM
     1  O1         0.7438      2.0877     -0.4296  O       1  LIG       0.0000
     2  C2         1.2625      1.4101      0.5077  C       1  LIG       0.0000
     3  C3        -0.0744      0.4369      1.0564  C       1  LIG       0.0000
     4  C4         0.6108      0.1125      0.4058  C       1  LIG       0.0000
     5  C5         0.8152     -0.6917     -0.9660  C       1  LIG       0.0000
     6  C6        -0.0519      1.1099     -0.9718  C       1  LIG       0.0000
     7  C7        -1.1530      0.2473     -1.7754  C       1  LIG       0.0000
     8  C8        -1.7679     -1.4902     -0.6132  C       1  LIG       0.0000
     9  C9        -2.7357     -1.6723      0.5843  C       1  LIG       0.0000
    10  H10        1.0783      3.2087      0.2805  H       1  LIG       0.0000
    11  H11        0.7517     -0.1760      2.0101  H       1  LIG       0.0000
    12  H12        0.3713     -0.1561      1.3350  H       1  LIG       0.0000
    13  H13        0.5717     -1.0159      1.3540  H       1  LIG       0.0000
    14  H14        1.8136     -1.6031     -0.3594  H       1  LIG       0.0000
    15  H15        0.4025     -1.4368      0.2018  H       1  LIG       0.0000
    16  H16        0.5583      1.6318      0.2677  H       1  LIG       0.0000
    17  H17        0.3365     -0.1116     -2.0315  H       1  LIG       0.0000
    18  H18       -1.1438      0.5715     -1.7016  H       1  LIG       0.0000
    19  H19       -2.3895     -2.4626      0.8452  H       1  LIG       0.0000
@<TRIPOS>BOND
    1     3    11  1
    2     3    12  1
    3     2     3  1
    4     3     4  1
    5     1    10  1
    6     7    17  1
    7     1     2  1
    8     2     4  1
    9     2     6  1
   10     4    13  1
   11     4     5  1
   12     7    18  1
   13     5    15  1
   14     6     7  1
   15     7     8  1
   16     5     6  1
   17     6    16  1
   18     5    14  1
   19     8     9  3
   20     9    19  1
