@<TRIPOS>MOLECULE
generated_molecule
20 21 0 0 0
SMALL
NO_CHARGES

@<TRIPOS>ATOM
     1  C1         0.3224     -0.6038      0.1304  C       1  LIG       0.0000
     2  C2         0.2653      0.4304      0.8079  C       1  LIG       0.0000
     3  C3        -0.6308      0.3230     -0.1655  C       1  LIG       0.0000
     4  C4        -0.0323      1.0597     -0.0803  C       1  LIG       0.0000
     5  C5        -0.1173      1.0407     -0.9792  C       1  LIG       0.0000
     6  C6        -1.0010     -0.7453     -1.7044  C       1  LIG       0.0000
     7  C7        -0.4691     -1.5471      0.3817  C       1  LIG       0.0000
     8  C8        -0.2419     -1.1271      0.7126  C       1  LIG       0.0000
     9  H9         1.3849     -0.1772     -0.5296  H       1  LIG       0.0000
    10  H10        0.8312     -0.6569      1.4347  H       1  LIG       0.0000
    11  H11        0.6265      0.9420      2.1330  H       1  LIG       0.0000
    12  H12        0.7616      0.4916      1.9784  H       1  LIG       0.0000
    13  H13        0.8783      1.4573     -1.2236  H       1  LIG       0.0000
    14  H14        0.5158      1.5420     -0.4125  H       1  LIG       0.0000
    15  H15       -0.9347      1.0568     -1.8141  H       1  LIG       0.0000
    16  H16       -1.0238      1.3123     -0.0658  H       1  LIG       0.0000
    17  H17       -0.8556     -1.7243     -0.6599  H       1  LIG       0.0000
    18  H18       -0.0021     -0.8044     -0.6951  H       1  LIG       0.0000
    19  H19        0.4659     -2.2678     -0.1248  H       1  LIG       0.0000
    20  H20       -0.7431     -0.0018      0.8760  H       1  LIG       0.0000
@<TRIPOS>BOND
    1     4    14  1
    2     1    10  1
    3     2    11  1
    4     5    16  1
    5     5    15  1
    6     1     4  1
    7     1     2  1
    8     1     9  1
    9     4    13  1
   10     3     4  1
   11     2     3  1
   12     2    12  1
   13     3     5  1
   14     5     6  1
   15     3     8  1
   16     6    18  1
   17     6    17  1
   18     6     7  1
   19     7     8  2
   20     8    20  1
   21     7    19  1
