@<TRIPOS>MOLECULE
generated_molecule
16 19 0 0 0
SMALL
NO_CHARGES

@<TRIPOS>ATOM
     1  O1        -0.0923      0.9563      0.2335  O       1  LIG       0.0000
     2  C2        -0.5156      0.4433     -0.0059  C       1  LIG       0.0000
     3  C3         1.5789      0.3175     -0.0706  C       1  LIG       0.0000
     4  C4         0.7159     -0.3235     -0.5601  C       1  LIG       0.0000
     5  N5        -0.2772     -1.5652      0.8351  N       1  LIG       0.0000
     6  C6         0.1125     -0.5522      0.9032  C       1  LIG       0.0000
     7  C7        -0.4792     -1.6010      1.1968  C       1  LIG       0.0000
     8  C8        -0.8247      0.0287     -0.6460  C       1  LIG       0.0000
     9  O9        -0.7312      1.3709     -0.3700  O       1  LIG       0.0000
    10  H10       -0.6739      2.2376     -0.6058  H       1  LIG       0.0000
    11  H11        1.7612     -0.2168     -0.7767  H       1  LIG       0.0000
    12  H12        1.3825      0.1601     -1.5088  H       1  LIG       0.0000
    13  H13        0.9586      0.3548     -0.4690  H       1  LIG       0.0000
    14  H14        0.4778     -1.7200      1.7452  H       1  LIG       0.0000
    15  H15       -1.9042     -1.3901      0.8913  H       1  LIG       0.0000
    16  H16       -1.4890      1.4997     -0.7921  H       1  LIG       0.0000
@<TRIPOS>BOND
    1     3    11  1
    2     3    12  1
    3     3     4  1
    4     2     3  1
    5     4    13  1
    6     9    16  1
    7     8     9  1
    8     4     8  1
    9     4     5  1
   10     2     8  1
   11     7     8  1
   12     1     2  1
   13     1    10  1
   14     2     6  1
   15     5     6  1
   16     5     7  1
   17     6     7  1
   18     6    14  1
   19     7    15  1
