@<TRIPOS>MOLECULE
generated_molecule
15 15 0 0 0
SMALL
NO_CHARGES

@<TRIPOS>ATOM
     1  C1        -0.0443      2.1510     -0.2179  C       1  LIG       0.0000
     2  C2         0.3068      0.7534      0.5376  C       1  LIG       0.0000
     3  C3        -0.1066     -0.2224      0.2080  C       1  LIG       0.0000
     4  N4        -0.5974     -1.3984     -0.3164  N       1  LIG       0.0000
     5  N5         0.4507     -1.7555      0.7422  N       1  LIG       0.0000
     6  C6         1.0985     -1.5050     -0.2821  C       1  LIG       0.0000
     7  O7         0.8142     -2.6982     -0.7951  O       1  LIG       0.0000
     8  N8         0.5779     -0.2109      1.1297  N       1  LIG       0.0000
     9  H9         1.0620      2.6326      0.2886  H       1  LIG       0.0000
    10  H10       -1.2694      1.3567     -0.6571  H       1  LIG       0.0000
    11  H11       -0.3173      3.3042     -0.6516  H       1  LIG       0.0000
    12  H12       -1.6783     -0.2773      0.8370  H       1  LIG       0.0000
    13  H13       -1.2504     -0.7374     -1.1775  H       1  LIG       0.0000
    14  H14       -0.3594     -1.8419     -0.8769  H       1  LIG       0.0000
    15  H15        1.3128      0.4491      1.2312  H       1  LIG       0.0000
@<TRIPOS>BOND
    1     4    13  1
    2     4    12  1
    3     3     4  1
    4     3     5  ar
    5     2     3  ar
    6     1    10  1
    7     5     6  ar
    8     1     2  1
    9     2     8  ar
   10     1    11  1
   11     1     9  1
   12     6     8  ar
   13     6     7  1
   14     7    14  1
   15     8    15  1
