@<TRIPOS>MOLECULE
generated_molecule
21 22 0 0 0
SMALL
NO_CHARGES

@<TRIPOS>ATOM
     1  C1        -0.4774      1.6442     -1.4682  C       1  LIG       0.0000
     2  C2         0.1946      0.4274     -0.9007  C       1  LIG       0.0000
     3  C3        -1.5037      1.2146     -0.6300  C       1  LIG       0.0000
     4  O4        -0.3633     -0.2233      0.1592  O       1  LIG       0.0000
     5  C5         0.6046     -0.9958     -0.5551  C       1  LIG       0.0000
     6  C6         1.1908      0.2084      0.9942  C       1  LIG       0.0000
     7  C7         0.4651     -1.1375      0.8174  C       1  LIG       0.0000
     8  O8         0.9021     -1.9354      1.2431  O       1  LIG       0.0000
     9  C9        -0.6646     -1.0482     -0.3608  C       1  LIG       0.0000
    10  H10       -0.9837      2.4820     -0.1416  H       1  LIG       0.0000
    11  H11        0.4175      2.1191     -0.4884  H       1  LIG       0.0000
    12  H12        0.9226      1.1985     -1.2781  H       1  LIG       0.0000
    13  H13       -2.1965     -0.0072     -1.0916  H       1  LIG       0.0000
    14  H14       -2.4526      0.0293     -0.8405  H       1  LIG       0.0000
    15  H15        0.6574      0.3552     -0.9061  H       1  LIG       0.0000
    16  H16        0.5413     -1.3636     -0.0566  H       1  LIG       0.0000
    17  H17        0.1199      0.1027      1.6522  H       1  LIG       0.0000
    18  H18        2.1746     -0.1219      1.2241  H       1  LIG       0.0000
    19  H19        0.3138     -0.3576      1.9964  H       1  LIG       0.0000
    20  H20        1.4519     -2.7130      1.3956  H       1  LIG       0.0000
    21  H21       -1.3145      0.1221     -0.7647  H       1  LIG       0.0000
@<TRIPOS>BOND
    1     4    15  1
    2     3     4  1
    3     1    11  1
    4     5    16  1
    5     3    13  1
    6     2     3  1
    7     3    14  1
    8     2     5  1
    9     5     6  1
   10     5     9  1
   11     6    18  1
   12     1     2  1
   13     1    10  1
   14     1    12  1
   15     2     9  1
   16     6    17  1
   17     6     7  1
   18     9    21  1
   19     7     9  1
   20     7    19  1
   21     7     8  1
   22     8    20  1
