@<TRIPOS>MOLECULE
generated_molecule
19 21 0 0 0
SMALL
NO_CHARGES

@<TRIPOS>ATOM
     1  O1        -0.9875      1.5342      0.3531  O       1  LIG       0.0000
     2  C2        -1.1247     -0.1779     -0.0118  C       1  LIG       0.0000
     3  C3         0.2035      0.3970     -0.9682  C       1  LIG       0.0000
     4  C4         0.9469     -1.1826     -1.2580  C       1  LIG       0.0000
     5  C5        -0.2170     -1.1356     -0.0863  C       1  LIG       0.0000
     6  C6         0.8202     -0.3289      1.1865  C       1  LIG       0.0000
     7  C7         0.0493      0.0005      2.1405  C       1  LIG       0.0000
     8  C8        -0.8757     -0.3948      0.4415  C       1  LIG       0.0000
     9  C9        -1.0012      1.3040     -0.2519  C       1  LIG       0.0000
    10  H10       -0.2313      2.2473     -0.5923  H       1  LIG       0.0000
    11  H11       -0.5566      0.3384     -1.6584  H       1  LIG       0.0000
    12  H12        1.3917     -1.4462     -1.6207  H       1  LIG       0.0000
    13  H13        1.0666     -1.9470      0.0696  H       1  LIG       0.0000
    14  H14        0.7389     -1.0276      0.7972  H       1  LIG       0.0000
    15  H15        1.7268      0.5425      0.4496  H       1  LIG       0.0000
    16  H16        1.3380     -0.5407     -0.4521  H       1  LIG       0.0000
    17  H17       -1.4974     -0.4629      1.8873  H       1  LIG       0.0000
    18  H18       -0.6315      1.2603     -1.1877  H       1  LIG       0.0000
    19  H19       -1.1589      1.0203      0.7621  H       1  LIG       0.0000
@<TRIPOS>BOND
    1     5    14  1
    2     4    13  1
    3     4     5  1
    4     5     6  1
    5     2     5  1
    6     6    16  1
    7     6    15  1
    8     4    12  1
    9     3     4  1
   10     6     7  1
   11     1     2  1
   12     1    10  1
   13     2     3  1
   14     2     8  1
   15     3    11  1
   16     3     9  1
   17     7     8  1
   18     7    17  1
   19     8     9  1
   20     9    19  1
   21     9    18  1
