@<TRIPOS>MOLECULE
generated_molecule
21 24 0 0 0
SMALL
NO_CHARGES

@<TRIPOS>ATOM
     1  C1         0.3513      2.3744     -1.2302  C       1  LIG       0.0000
     2  C2        -0.6677      0.7892     -0.8051  C       1  LIG       0.0000
     3  C3         0.9386      0.9674     -0.9142  C       1  LIG       0.0000
     4  C4         0.6737     -0.7099     -0.8562  C       1  LIG       0.0000
     5  C5        -0.4275     -1.4760     -0.0730  C       1  LIG       0.0000
     6  C6        -1.1344     -1.2985      1.3363  C       1  LIG       0.0000
     7  C7        -0.0202     -0.5646      2.4263  C       1  LIG       0.0000
     8  C8        -0.1189     -0.9221      1.0754  C       1  LIG       0.0000
     9  C9         0.1503     -1.9403      0.0480  C       1  LIG       0.0000
    10  H10       -1.2921      2.1376     -1.5226  H       1  LIG       0.0000
    11  H11       -0.7643      2.1007     -1.9152  H       1  LIG       0.0000
    12  H12       -0.3432      2.5393     -0.8170  H       1  LIG       0.0000
    13  H13       -0.6382      0.1130     -1.1868  H       1  LIG       0.0000
    14  H14        1.8948     -0.2283     -0.7545  H       1  LIG       0.0000
    15  H15        1.6666      0.8172     -1.7843  H       1  LIG       0.0000
    16  H16       -1.6030     -0.8822      0.0172  H       1  LIG       0.0000
    17  H17       -1.0574     -2.0750      1.4001  H       1  LIG       0.0000
    18  H18        0.4538     -0.0962      1.7539  H       1  LIG       0.0000
    19  H19        0.1649      0.2621      3.3264  H       1  LIG       0.0000
    20  H20        1.3140     -1.0370      1.3366  H       1  LIG       0.0000
    21  H21        0.4588     -0.8707     -0.8611  H       1  LIG       0.0000
@<TRIPOS>BOND
    1     1    11  1
    2     3    14  1
    3     2    13  1
    4     3    15  1
    5     2     3  1
    6     3     4  1
    7     1     2  1
    8     1    10  1
    9     1    12  1
   10     2     4  1
   11     4     9  1
   12     4     5  1
   13     9    21  1
   14     8     9  1
   15     6     9  1
   16     5    16  1
   17     5     8  1
   18     5     6  1
   19     8    20  1
   20     7     8  1
   21     6    17  1
   22     6     7  1
   23     7    19  1
   24     7    18  1
