@<TRIPOS>MOLECULE
generated_molecule
16 16 0 0 0
SMALL
NO_CHARGES

@<TRIPOS>ATOM
     1  C1         0.1439      1.7110     -0.1283  C       1  LIG       0.0000
     2  N2        -0.0369      0.3873     -0.3482  N       1  LIG       0.0000
     3  C3        -0.1635     -0.1480      0.5243  C       1  LIG       0.0000
     4  N4         1.0463      0.5761      1.9250  N       1  LIG       0.0000
     5  C5         0.2324     -1.5470      1.1326  C       1  LIG       0.0000
     6  C6         0.2493     -1.5971     -0.1815  C       1  LIG       0.0000
     7  C7         0.4106     -0.5386     -1.6997  C       1  LIG       0.0000
     8  O8        -1.2646     -0.4313     -1.5575  O       1  LIG       0.0000
     9  H9        -0.3118      2.4655     -0.6331  H       1  LIG       0.0000
    10  H10        0.2490      2.5251     -0.1575  H       1  LIG       0.0000
    11  H11       -0.6359      1.8117     -1.2114  H       1  LIG       0.0000
    12  H12       -0.6303      1.1233      1.1664  H       1  LIG       0.0000
    13  H13        0.4004     -0.8373      2.4494  H       1  LIG       0.0000
    14  H14        1.0482     -1.4954      0.1855  H       1  LIG       0.0000
    15  H15        0.2610     -2.9574     -1.2289  H       1  LIG       0.0000
    16  H16       -0.9981     -1.0479     -0.2370  H       1  LIG       0.0000
@<TRIPOS>BOND
    1     4    13  1
    2     4    12  1
    3     3     4  1
    4     5    14  1
    5     3     5  ar
    6     2     3  ar
    7     1    10  1
    8     5     6  ar
    9     1     2  1
   10     2     7  ar
   11     1     9  1
   12     1    11  1
   13     6     7  ar
   14     6    15  1
   15     7     8  1
   16     8    16  1
