@<TRIPOS>MOLECULE
generated_molecule
12 12 0 0 0
SMALL
NO_CHARGES

@<TRIPOS>ATOM
     1  O1         0.6975      2.2180      0.2280  O       1  LIG       0.0000
     2  C2        -0.3646      1.1990     -0.5936  C       1  LIG       0.0000
     3  C3         1.1234      0.4188     -1.6191  C       1  LIG       0.0000
     4  N4         0.5245      0.7601     -2.3191  N       1  LIG       0.0000
     5  C5         0.2627      0.0912     -0.5608  C       1  LIG       0.0000
     6  N6         0.9202     -1.5185     -0.0747  N       1  LIG       0.0000
     7  O7        -0.2605     -2.8077     -0.1865  O       1  LIG       0.0000
     8  N8         0.1906     -2.2123      1.1074  N       1  LIG       0.0000
     9  C9        -0.5422     -0.7299      0.7881  C       1  LIG       0.0000
    10  H10       -0.0232      2.5534      0.8279  H       1  LIG       0.0000
    11  H11       -1.5933      0.9933      0.2816  H       1  LIG       0.0000
    12  H12       -0.9352     -0.9653      2.1208  H       1  LIG       0.0000
@<TRIPOS>BOND
    1     1     2  1
    2     1    10  1
    3     2     3  1
    4     2     5  1
    5     2    11  1
    6     3     4  3
    7     5     6  ar
    8     5     9  ar
    9     6     7  ar
   10     7     8  ar
   11     8     9  ar
   12     9    12  1
