@<TRIPOS>MOLECULE
generated_molecule
21 22 0 0 0
SMALL
NO_CHARGES

@<TRIPOS>ATOM
     1  C1        -1.6824      1.3966      0.0656  C       1  LIG       0.0000
     2  C2        -1.9205     -0.2701     -0.4052  C       1  LIG       0.0000
     3  C3        -1.5555     -0.7157     -1.3574  C       1  LIG       0.0000
     4  C4        -0.3187     -0.5199     -1.8959  C       1  LIG       0.0000
     5  C5         0.8224     -0.4175     -0.9360  C       1  LIG       0.0000
     6  C6         0.1807     -0.4593      0.8243  C       1  LIG       0.0000
     7  C7         2.1716     -0.7370      0.5417  C       1  LIG       0.0000
     8  O8         2.2091      0.4019      0.6569  O       1  LIG       0.0000
     9  C9        -0.2961     -0.1204      1.3053  C       1  LIG       0.0000
    10  H10       -0.4826      1.6720      0.3856  H       1  LIG       0.0000
    11  H11       -0.4511      2.2361      0.4326  H       1  LIG       0.0000
    12  H12       -0.8904      1.8662      1.4563  H       1  LIG       0.0000
    13  H13       -1.2040     -0.4824      0.1720  H       1  LIG       0.0000
    14  H14       -0.9797     -0.0029     -2.5297  H       1  LIG       0.0000
    15  H15       -0.1020     -0.6627     -2.8611  H       1  LIG       0.0000
    16  H16        1.3457     -1.7613     -0.4097  H       1  LIG       0.0000
    17  H17        0.6795     -1.5074      1.7679  H       1  LIG       0.0000
    18  H18        1.8770      0.3812      0.4918  H       1  LIG       0.0000
    19  H19        0.7317     -0.9715      0.5269  H       1  LIG       0.0000
    20  H20        1.3047      1.6887      0.7579  H       1  LIG       0.0000
    21  H21       -1.4394     -1.0147      1.0102  H       1  LIG       0.0000
@<TRIPOS>BOND
    1     3    14  1
    2     1    11  1
    3     3     4  2
    4     2     3  1
    5     4    15  1
    6     1    10  1
    7     1     2  1
    8     1    12  1
    9     4     5  1
   10     2    13  1
   11     2     9  1
   12     7    18  1
   13     7    19  1
   14     7     8  1
   15     6     7  1
   16     5     9  1
   17     5     6  1
   18     5    16  1
   19     8    20  1
   20     6     9  1
   21     9    21  1
   22     6    17  1
