@<TRIPOS>MOLECULE
generated_molecule
19 21 0 0 0
SMALL
NO_CHARGES

@<TRIPOS>ATOM
     1  C1         1.1945      0.3045     -0.0969  C       1  LIG       0.0000
     2  C2         1.4524     -0.7818      0.8051  C       1  LIG       0.0000
     3  C3         0.7540      0.2251     -0.7496  C       1  LIG       0.0000
     4  O4        -0.7552     -0.4110     -1.0673  O       1  LIG       0.0000
     5  C5        -0.6633      0.3687     -0.7422  C       1  LIG       0.0000
     6  C6        -1.5857      0.2956     -0.6642  C       1  LIG       0.0000
     7  C7        -0.7396     -1.0577     -0.0187  C       1  LIG       0.0000
     8  O8        -1.6261      0.3333      0.7620  O       1  LIG       0.0000
     9  C9        -0.3040      0.8373      0.7868  C       1  LIG       0.0000
    10  H10        1.2821      1.3486     -1.1937  H       1  LIG       0.0000
    11  H11        0.1602     -0.5108     -0.7293  H       1  LIG       0.0000
    12  H12       -0.4058      0.2221      1.3186  H       1  LIG       0.0000
    13  H13        1.0678      0.5414      1.4348  H       1  LIG       0.0000
    14  H14        0.5198     -0.6753     -0.3946  H       1  LIG       0.0000
    15  H15       -0.8835      1.8058     -1.1318  H       1  LIG       0.0000
    16  H16       -1.3766     -0.8136     -0.7065  H       1  LIG       0.0000
    17  H17        0.5517     -0.8692      0.3659  H       1  LIG       0.0000
    18  H18        0.4779     -1.3916      0.6624  H       1  LIG       0.0000
    19  H19        0.8795      0.2287      1.3592  H       1  LIG       0.0000
@<TRIPOS>BOND
    1     1    11  1
    2     2    12  1
    3     7    18  1
    4     2    13  1
    5     1     2  1
    6     1     7  1
    7     1    10  1
    8     2     3  1
    9     7    17  1
   10     6     7  1
   11     6     8  1
   12     8     9  1
   13     6    16  1
   14     5     6  1
   15     3    14  1
   16     3     9  1
   17     3     4  1
   18     9    19  1
   19     5     9  1
   20     4     5  1
   21     5    15  1
