@<TRIPOS>MOLECULE
generated_molecule
19 19 0 0 0
SMALL
NO_CHARGES

@<TRIPOS>ATOM
     1  C1        -0.5190      2.1249     -0.8394  C       1  LIG       0.0000
     2  O2        -0.5100      0.8221     -0.0503  O       1  LIG       0.0000
     3  C3         0.2782     -0.5410      0.2482  C       1  LIG       0.0000
     4  C4         0.5592     -1.1183      0.2629  C       1  LIG       0.0000
     5  C5         0.1760     -0.9518      0.6426  C       1  LIG       0.0000
     6  C6        -0.3177     -0.5182      1.0835  C       1  LIG       0.0000
     7  O7        -0.8174     -0.7344     -0.4251  O       1  LIG       0.0000
     8  C8        -0.2578     -2.2025      0.1654  C       1  LIG       0.0000
     9  O9        -1.0366     -2.4275     -1.2119  O       1  LIG       0.0000
    10  H10       -0.0434      2.9098     -0.1617  H       1  LIG       0.0000
    11  H11       -0.4240      2.6041     -0.2123  H       1  LIG       0.0000
    12  H12        0.9495      2.2484     -0.4683  H       1  LIG       0.0000
    13  H13       -0.1448      0.0641     -0.9344  H       1  LIG       0.0000
    14  H14       -0.0063      0.8750     -0.7463  H       1  LIG       0.0000
    15  H15        0.2837     -2.2063     -0.5945  H       1  LIG       0.0000
    16  H16        0.4184     -2.3850      1.1906  H       1  LIG       0.0000
    17  H17        1.1578      0.6068      1.1846  H       1  LIG       0.0000
    18  H18        0.4589      1.4947      0.7706  H       1  LIG       0.0000
    19  H19       -0.2049     -0.6649      0.0960  H       1  LIG       0.0000
@<TRIPOS>BOND
    1     6    18  1
    2     6    17  1
    3     6     7  1
    4     4     7  1
    5     5     6  1
    6     1    11  1
    7     3    14  1
    8     1    10  1
    9     1     2  1
   10     2     3  1
   11     4     5  1
   12     3     4  1
   13     4     8  1
   14     1    12  1
   15     5    16  1
   16     5    15  1
   17     3    13  1
   18     8    19  1
   19     8     9  2
