@<TRIPOS>MOLECULE
generated_molecule
20 20 0 0 0
SMALL
NO_CHARGES

@<TRIPOS>ATOM
     1  C1        -0.7966      2.1482      0.6134  C       1  LIG       0.0000
     2  O2         0.0779      0.8058     -0.5200  O       1  LIG       0.0000
     3  C3         0.0660      0.2033      1.0456  C       1  LIG       0.0000
     4  C4         1.0440     -0.2958      0.5254  C       1  LIG       0.0000
     5  C5         0.0777     -1.1825      0.3488  C       1  LIG       0.0000
     6  C6        -0.5253     -2.3718     -0.7207  C       1  LIG       0.0000
     7  C7         0.1076     -2.0334     -0.8653  C       1  LIG       0.0000
     8  C8         0.1707     -1.3516     -1.1145  C       1  LIG       0.0000
     9  N9         0.3140      0.0337     -0.7975  N       1  LIG       0.0000
    10  H10        0.2644      2.8660     -0.2731  H       1  LIG       0.0000
    11  H11        0.1539      1.8223     -0.3257  H       1  LIG       0.0000
    12  H12       -0.5616      3.4493      0.3784  H       1  LIG       0.0000
    13  H13       -0.6536      1.2913      0.7835  H       1  LIG       0.0000
    14  H14        2.2424      0.5603      0.2629  H       1  LIG       0.0000
    15  H15        1.6137     -0.0147      0.7411  H       1  LIG       0.0000
    16  H16       -0.4590     -0.2302      0.3991  H       1  LIG       0.0000
    17  H17       -0.7103     -2.1217      0.2621  H       1  LIG       0.0000
    18  H18       -1.2919     -2.6381     -0.0671  H       1  LIG       0.0000
    19  H19        0.2490     -1.0236     -0.2981  H       1  LIG       0.0000
    20  H20       -1.3829      0.0832     -0.3782  H       1  LIG       0.0000
@<TRIPOS>BOND
    1     4    16  1
    2     4    14  1
    3     4    15  1
    4     3     4  1
    5     6    17  1
    6     1    11  1
    7     3    13  1
    8     3     5  1
    9     2     3  1
   10     5     6  ar
   11     6     7  ar
   12     1    12  1
   13     1     2  1
   14     1    10  1
   15     5     9  ar
   16     7    18  1
   17     7     8  ar
   18     8     9  ar
   19     9    20  1
   20     8    19  1
