@<TRIPOS>MOLECULE
generated_molecule
17 16 0 0 0
SMALL
NO_CHARGES

@<TRIPOS>ATOM
     1  O1         1.1650      0.5584      0.0049  O       1  LIG       0.0000
     2  C2         0.9405      0.6245      0.8866  C       1  LIG       0.0000
     3  C3        -0.2047      0.8330     -0.4213  C       1  LIG       0.0000
     4  C4         0.4706      0.5244     -0.2585  C       1  LIG       0.0000
     5  O5        -0.3782     -0.2007      0.6175  O       1  LIG       0.0000
     6  C6        -0.3604     -0.6829      1.0058  C       1  LIG       0.0000
     7  O7        -1.2839     -1.2624      0.2623  O       1  LIG       0.0000
     8  C8        -1.3597     -0.2683     -0.8827  C       1  LIG       0.0000
     9  C9        -0.6603     -1.5412     -2.0753  C       1  LIG       0.0000
    10  H10        0.2009     -0.2146      1.2731  H       1  LIG       0.0000
    11  H11        1.8161      0.9355     -0.1192  H       1  LIG       0.0000
    12  H12        1.0218      1.6333     -0.6638  H       1  LIG       0.0000
    13  H13        0.3093      0.5522      0.3960  H       1  LIG       0.0000
    14  H14       -0.8919      1.2464      0.7944  H       1  LIG       0.0000
    15  H15        1.3854     -0.0715      0.7391  H       1  LIG       0.0000
    16  H16       -0.2762     -1.3796     -0.2247  H       1  LIG       0.0000
    17  H17       -1.8945     -1.2866     -1.3342  H       1  LIG       0.0000
@<TRIPOS>BOND
    1     9    17  1
    2     8     9  3
    3     6     8  1
    4     3    14  1
    5     2    11  1
    6     4    15  1
    7     1    10  1
    8     1     2  1
    9     2     3  1
   10     3     4  1
   11     3    13  1
   12     4     6  1
   13     6     7  2
   14     2    12  1
   15     4     5  1
   16     5    16  1
