@<TRIPOS>MOLECULE
generated_molecule
16 17 0 0 0
SMALL
NO_CHARGES

@<TRIPOS>ATOM
     1  O1        -0.8764     -2.6811     -1.0146  O       1  LIG       0.0000
     2  C2        -1.4858     -1.6342     -0.0184  C       1  LIG       0.0000
     3  C3        -0.6108     -0.0910      0.6061  C       1  LIG       0.0000
     4  C4         0.3081     -0.5531      0.0061  C       1  LIG       0.0000
     5  C5         0.3513      1.0987      0.2421  C       1  LIG       0.0000
     6  C6         0.1674      0.8251      1.5044  C       1  LIG       0.0000
     7  O7         0.7771      2.0119      0.2037  O       1  LIG       0.0000
     8  C8         0.4267     -0.0308     -1.8364  C       1  LIG       0.0000
     9  N9         0.8338     -1.0372     -0.2987  N       1  LIG       0.0000
    10  H10       -1.4473     -1.3617     -1.3843  H       1  LIG       0.0000
    11  H11        1.7261     -1.0411      0.1036  H       1  LIG       0.0000
    12  H12        0.3220     -1.6879      0.9552  H       1  LIG       0.0000
    13  H13       -0.2473      0.8793      0.5235  H       1  LIG       0.0000
    14  H14       -1.0826      1.7822      0.9103  H       1  LIG       0.0000
    15  H15       -0.5294      2.0900      1.2644  H       1  LIG       0.0000
    16  H16        1.3671      1.4312     -1.7670  H       1  LIG       0.0000
@<TRIPOS>BOND
    1     6    14  1
    2     6    15  1
    3     5    13  1
    4     5     6  1
    5     6     7  1
    6     3     5  1
    7     4     5  1
    8     7     8  1
    9     1     2  2
   10     2     3  1
   11     3     4  1
   12     3     9  1
   13     8    16  1
   14     8     9  2
   15     2    10  1
   16     4    11  1
   17     4    12  1
