@<TRIPOS>MOLECULE
generated_molecule
18 19 0 0 0
SMALL
NO_CHARGES

@<TRIPOS>ATOM
     1  C1        -1.0829      1.6433     -0.1128  C       1  LIG       0.0000
     2  C2        -1.2245      0.3729      0.4239  C       1  LIG       0.0000
     3  N3        -0.7699     -0.0659     -1.1838  N       1  LIG       0.0000
     4  C4         0.9156     -0.5885     -1.1672  C       1  LIG       0.0000
     5  O5         1.2209     -0.6161     -2.4981  O       1  LIG       0.0000
     6  C6         0.9694     -1.9028     -0.2338  C       1  LIG       0.0000
     7  C7         1.1903     -1.0287      0.9427  C       1  LIG       0.0000
     8  O8         0.3316     -1.1199      1.9948  O       1  LIG       0.0000
     9  C9         0.0766     -0.0117      0.9063  C       1  LIG       0.0000
    10  H10       -0.5097      2.0552     -1.5049  H       1  LIG       0.0000
    11  H11       -1.9418      1.9661      0.2041  H       1  LIG       0.0000
    12  H12       -1.0490      2.3274      0.1595  H       1  LIG       0.0000
    13  H13       -1.4921     -0.6129      0.1926  H       1  LIG       0.0000
    14  H14        0.0546      0.6772     -2.1458  H       1  LIG       0.0000
    15  H15        1.8760     -1.4121      0.7185  H       1  LIG       0.0000
    16  H16        1.1177     -1.1956      0.0863  H       1  LIG       0.0000
    17  H17        1.0902     -0.5860      0.8907  H       1  LIG       0.0000
    18  H18       -0.7731      0.0980      2.3269  H       1  LIG       0.0000
@<TRIPOS>BOND
    1     4     5  2
    2     3    14  1
    3     3     4  1
    4     4     6  1
    5     2     3  1
    6     1    11  1
    7     6    16  1
    8     6    15  1
    9     6     7  1
   10     1    10  1
   11     1     2  1
   12     1    12  1
   13     2    13  1
   14     2     9  1
   15     7     9  1
   16     7     8  1
   17     7    17  1
   18     8     9  1
   19     9    18  1
