@<TRIPOS>MOLECULE
generated_molecule
20 19 0 0 0
SMALL
NO_CHARGES

@<TRIPOS>ATOM
     1  C1         0.8786      0.0566      1.8186  C       1  LIG       0.0000
     2  C2         0.2683      0.1979      0.0860  C       1  LIG       0.0000
     3  C3        -0.0647      1.6401      0.1350  C       1  LIG       0.0000
     4  C4        -0.4987     -0.8294      0.8790  C       1  LIG       0.0000
     5  C5         0.9817     -0.8603     -1.1484  C       1  LIG       0.0000
     6  O6         0.8796      0.0451     -1.7918  O       1  LIG       0.0000
     7  C7        -0.8023     -0.7720     -0.7966  C       1  LIG       0.0000
     8  C8        -1.7194     -1.2262     -2.2641  C       1  LIG       0.0000
     9  H9        -0.7204      0.7433      1.6626  H       1  LIG       0.0000
    10  H10       -1.0192      0.3337      1.1719  H       1  LIG       0.0000
    11  H11        1.6728     -0.2700      0.4126  H       1  LIG       0.0000
    12  H12        0.9194      2.1219      0.5206  H       1  LIG       0.0000
    13  H13        0.6940      1.8790      0.2440  H       1  LIG       0.0000
    14  H14        0.1805      2.3236     -0.2906  H       1  LIG       0.0000
    15  H15       -1.2625     -0.2907      1.3193  H       1  LIG       0.0000
    16  H16        0.4857     -1.5343      1.2871  H       1  LIG       0.0000
    17  H17       -1.3760     -0.1065      1.4507  H       1  LIG       0.0000
    18  H18        0.9337     -0.5929     -0.6780  H       1  LIG       0.0000
    19  H19        0.5976     -0.3938     -2.9212  H       1  LIG       0.0000
    20  H20       -1.0289     -2.4652     -1.0967  H       1  LIG       0.0000
@<TRIPOS>BOND
    1     5    18  1
    2     8    20  1
    3     7     8  3
    4     5     7  1
    5     5     6  1
    6     6    19  1
    7     2     5  1
    8     4    15  1
    9     1    10  1
   10     1     9  1
   11     1     2  1
   12     1    11  1
   13     2     4  1
   14     4    16  1
   15     4    17  1
   16     2     3  1
   17     3    14  1
   18     3    13  1
   19     3    12  1
