@<TRIPOS>MOLECULE
generated_molecule
22 23 0 0 0
SMALL
NO_CHARGES

@<TRIPOS>ATOM
     1  C1        -0.4157      0.7005     -1.1280  C       1  LIG       0.0000
     2  C2        -0.5205      0.5355     -0.8154  C       1  LIG       0.0000
     3  C3         0.1646     -0.3850     -0.6667  C       1  LIG       0.0000
     4  C4         0.5711     -0.7724     -0.4356  C       1  LIG       0.0000
     5  C5         0.4279     -0.7973      0.1536  C       1  LIG       0.0000
     6  C6         0.7332     -0.5708     -0.4280  C       1  LIG       0.0000
     7  C7         0.7793      0.7951      0.5711  C       1  LIG       0.0000
     8  C8         0.1204     -0.0637      1.8568  C       1  LIG       0.0000
     9  N9        -0.0390      0.6934      1.5782  N       1  LIG       0.0000
    10  H10       -0.3723      1.4439     -2.1967  H       1  LIG       0.0000
    11  H11       -0.6915      1.5201      0.0225  H       1  LIG       0.0000
    12  H12       -1.1851      1.2594     -1.2897  H       1  LIG       0.0000
    13  H13       -0.7462     -0.7160     -0.4739  H       1  LIG       0.0000
    14  H14        1.2770      0.4037     -1.2736  H       1  LIG       0.0000
    15  H15        0.2717     -0.0474     -1.5310  H       1  LIG       0.0000
    16  H16       -0.9349     -1.3065     -1.6579  H       1  LIG       0.0000
    17  H17       -0.5978     -1.4286     -1.0426  H       1  LIG       0.0000
    18  H18        1.2502     -1.1822      0.3272  H       1  LIG       0.0000
    19  H19        0.4232     -0.5121      0.6879  H       1  LIG       0.0000
    20  H20       -0.8280     -0.7327      2.1373  H       1  LIG       0.0000
    21  H21        0.0740      0.0616      2.8263  H       1  LIG       0.0000
    22  H22        0.2384      1.1015      2.7781  H       1  LIG       0.0000
@<TRIPOS>BOND
    1     3    15  1
    2     4    16  1
    3     4    17  1
    4     3     4  1
    5     4     5  1
    6     3    14  1
    7     2     3  1
    8     1    11  1
    9     2    13  1
   10     1     2  1
   11     2     7  1
   12     1    10  1
   13     1    12  1
   14     5    18  1
   15     5     6  2
   16     6     7  1
   17     6    19  1
   18     7     9  1
   19     7     8  1
   20     9    22  1
   21     8     9  1
   22     8    21  1
   23     8    20  1
