@<TRIPOS>MOLECULE
generated_molecule
17 17 0 0 0
SMALL
NO_CHARGES

@<TRIPOS>ATOM
     1  C1         0.7870      2.4699      0.1262  C       1  LIG       0.0000
     2  N2        -0.7084      1.6443      0.1644  N       1  LIG       0.0000
     3  C3        -0.8530      0.6141     -1.4001  C       1  LIG       0.0000
     4  N4        -0.0338     -0.6095     -0.1523  N       1  LIG       0.0000
     5  C5        -1.2768     -1.8304     -0.0454  C       1  LIG       0.0000
     6  O6        -0.5181     -2.0358     -0.1598  O       1  LIG       0.0000
     7  C7        -0.7243     -0.8796      0.2844  C       1  LIG       0.0000
     8  C8         0.3508     -2.3074      0.3688  C       1  LIG       0.0000
     9  C9        -0.1996      0.3977      1.4493  C       1  LIG       0.0000
    10  H10        1.3292      1.5040     -0.7730  H       1  LIG       0.0000
    11  H11        0.4140      2.3068     -1.0003  H       1  LIG       0.0000
    12  H12       -0.2730      1.5901     -0.8198  H       1  LIG       0.0000
    13  H13        0.4269      0.4422     -1.5447  H       1  LIG       0.0000
    14  H14        0.9556     -1.3014      0.9717  H       1  LIG       0.0000
    15  H15       -0.5682     -1.7704     -0.0847  H       1  LIG       0.0000
    16  H16        1.2670     -2.0283      1.4647  H       1  LIG       0.0000
    17  H17       -0.3754      1.7937      1.1507  H       1  LIG       0.0000
@<TRIPOS>BOND
    1     3    13  1
    2     3     4  ar
    3     4     5  ar
    4     2     3  ar
    5     1    11  1
    6     5     6  2
    7     5     7  ar
    8     1     2  1
    9     2     9  ar
   10     1    10  1
   11     1    12  1
   12     7     9  ar
   13     9    17  1
   14     7     8  1
   15     8    14  1
   16     8    16  1
   17     8    15  1
