@<TRIPOS>MOLECULE
generated_molecule
21 22 0 0 0
SMALL
NO_CHARGES

@<TRIPOS>ATOM
     1  C1        -1.7499      1.3758      0.2056  C       1  LIG       0.0000
     2  C2        -0.4584      0.6732      0.0395  C       1  LIG       0.0000
     3  O3        -0.9467      1.0420      0.9567  O       1  LIG       0.0000
     4  C4         0.4077     -1.0831     -0.8144  C       1  LIG       0.0000
     5  C5         1.1679      1.1457      0.4268  C       1  LIG       0.0000
     6  C6         1.0695     -0.8025      0.3204  C       1  LIG       0.0000
     7  C7        -0.3248     -1.1716      0.7230  C       1  LIG       0.0000
     8  C8         0.8134     -1.6168     -0.6543  C       1  LIG       0.0000
     9  C9        -0.9279      0.3681      0.7736  C       1  LIG       0.0000
    10  H10       -1.3027      1.7873     -0.0592  H       1  LIG       0.0000
    11  H11       -1.8776      2.4971      0.0061  H       1  LIG       0.0000
    12  H12       -1.2981      2.2882     -0.8795  H       1  LIG       0.0000
    13  H13       -2.0759     -0.0971      0.2491  H       1  LIG       0.0000
    14  H14       -0.1828     -1.7136      0.9872  H       1  LIG       0.0000
    15  H15        1.0430      1.1428     -1.0607  H       1  LIG       0.0000
    16  H16        2.0433      0.5113     -0.6807  H       1  LIG       0.0000
    17  H17        1.3556     -1.8903      0.4974  H       1  LIG       0.0000
    18  H18        1.8748     -1.6345     -1.2806  H       1  LIG       0.0000
    19  H19       -0.0220     -1.2411     -0.9905  H       1  LIG       0.0000
    20  H20        1.5742     -2.5524     -0.5090  H       1  LIG       0.0000
    21  H21       -0.1827      0.9714      1.7434  H       1  LIG       0.0000
@<TRIPOS>BOND
    1     4    14  1
    2     5    15  1
    3     3     4  1
    4     4     5  1
    5     4     6  1
    6     2     3  1
    7     5    16  1
    8     5     6  1
    9     1    11  1
   10     1    10  1
   11     1     2  1
   12     1    12  1
   13     2    13  1
   14     2     9  1
   15     6    17  1
   16     6     7  1
   17     7     9  2
   18     9    21  1
   19     7     8  1
   20     8    18  1
   21     8    20  1
   22     8    19  1
