@<TRIPOS>MOLECULE
generated_molecule
21 22 0 0 0
SMALL
NO_CHARGES

@<TRIPOS>ATOM
     1  O1         1.3696      0.4896     -0.3628  O       1  LIG       0.0000
     2  C2         1.1503      0.0298      0.2300  C       1  LIG       0.0000
     3  C3         1.0537     -0.0761      0.7276  C       1  LIG       0.0000
     4  C4        -0.0020      0.0821     -0.7749  C       1  LIG       0.0000
     5  O5        -0.4421      0.8024     -0.4918  O       1  LIG       0.0000
     6  C6         0.5136      0.7220     -1.1001  C       1  LIG       0.0000
     7  C7        -1.0706      0.6055      0.9212  C       1  LIG       0.0000
     8  C8        -2.5677     -0.2180      0.9159  C       1  LIG       0.0000
     9  C9        -0.6082     -1.4749      0.5724  C       1  LIG       0.0000
    10  H10        1.8584     -0.5353      0.4761  H       1  LIG       0.0000
    11  H11        1.9332     -0.3780     -0.7706  H       1  LIG       0.0000
    12  H12        0.9876      0.5958      1.7810  H       1  LIG       0.0000
    13  H13        0.9240      1.5660      1.0722  H       1  LIG       0.0000
    14  H14       -0.3508     -0.5190     -0.9601  H       1  LIG       0.0000
    15  H15        0.6753     -0.0728     -1.5343  H       1  LIG       0.0000
    16  H16       -0.5172      0.5379     -1.1316  H       1  LIG       0.0000
    17  H17       -0.2424      0.5197     -0.3585  H       1  LIG       0.0000
    18  H18       -1.6838      0.3150     -0.0890  H       1  LIG       0.0000
    19  H19       -1.3076     -0.5664      0.8380  H       1  LIG       0.0000
    20  H20       -0.7464     -0.8276      0.7772  H       1  LIG       0.0000
    21  H21       -0.9269     -1.5977     -0.7379  H       1  LIG       0.0000
@<TRIPOS>BOND
    1     2    11  1
    2     6    15  1
    3     6    16  1
    4     2     6  1
    5     4     6  1
    6     1     2  1
    7     2     3  1
    8     1    10  1
    9     3    12  1
   10     3     4  1
   11     3    13  1
   12     4     5  1
   13     4     7  1
   14     5    14  1
   15     7    17  1
   16     7     9  1
   17     7     8  1
   18     9    20  1
   19     9    21  1
   20     8     9  1
   21     8    19  1
   22     8    18  1
