@<TRIPOS>MOLECULE
generated_molecule
18 19 0 0 0
SMALL
NO_CHARGES

@<TRIPOS>ATOM
     1  N1         0.3739      1.4719      0.7793  N       1  LIG       0.0000
     2  C2         0.8097      0.7434      0.0629  C       1  LIG       0.0000
     3  C3         0.2795     -1.0820      0.4762  C       1  LIG       0.0000
     4  C4         0.4230     -0.2292      1.0549  C       1  LIG       0.0000
     5  C5         0.3131     -0.1387     -0.0264  C       1  LIG       0.0000
     6  C6         1.0021      0.0522     -1.1576  C       1  LIG       0.0000
     7  N7        -0.1480      0.4526     -1.2526  N       1  LIG       0.0000
     8  C8        -1.2425     -1.2711     -0.2459  C       1  LIG       0.0000
     9  N9        -1.9213      0.0268     -0.9783  N       1  LIG       0.0000
    10  H10       -0.5928      2.0771     -0.1507  H       1  LIG       0.0000
    11  H11        0.1738      2.1385      0.8155  H       1  LIG       0.0000
    12  H12        1.9134      0.0848     -0.7092  H       1  LIG       0.0000
    13  H13        1.0468     -0.8638      1.6791  H       1  LIG       0.0000
    14  H14       -0.5083     -1.3667      0.6923  H       1  LIG       0.0000
    15  H15        0.4055     -0.8503      1.6593  H       1  LIG       0.0000
    16  H16       -1.0757     -1.3085     -0.9793  H       1  LIG       0.0000
    17  H17        0.5627     -0.3075     -1.3001  H       1  LIG       0.0000
    18  H18       -1.8146      0.3704     -0.4192  H       1  LIG       0.0000
@<TRIPOS>BOND
    1     7    18  1
    2     1    10  1
    3     6     7  1
    4     5     7  1
    5     6    17  1
    6     2    12  1
    7     5     6  1
    8     6    16  1
    9     1    11  1
   10     1     2  1
   11     2     5  1
   12     2     3  1
   13     4     5  1
   14     4    14  1
   15     3     4  1
   16     4    15  1
   17     3     8  1
   18     3    13  1
   19     8     9  3
