@<TRIPOS>MOLECULE
generated_molecule
19 19 0 0 0
SMALL
NO_CHARGES

@<TRIPOS>ATOM
     1  C1        -0.6254      1.1639      1.6167  C       1  LIG       0.0000
     2  C2        -0.5501      0.1779      0.7268  C       1  LIG       0.0000
     3  C3         0.1735     -0.5887     -0.2617  C       1  LIG       0.0000
     4  O4        -0.6674      0.4006      0.2134  O       1  LIG       0.0000
     5  C5         0.0002      0.2011     -0.3425  C       1  LIG       0.0000
     6  C6         1.2418     -1.2951     -1.0267  C       1  LIG       0.0000
     7  O7        -0.1444     -2.5659     -0.6021  O       1  LIG       0.0000
     8  C8         0.6649     -0.1423     -1.3402  C       1  LIG       0.0000
     9  O9         0.3468     -0.3728     -1.6735  O       1  LIG       0.0000
    10  H10       -1.0570      0.9671      0.1803  H       1  LIG       0.0000
    11  H11        0.9157      2.2369      0.3977  H       1  LIG       0.0000
    12  H12       -0.4425      1.9782      1.6293  H       1  LIG       0.0000
    13  H13       -1.4123     -0.9485      1.1473  H       1  LIG       0.0000
    14  H14        0.4324     -0.3348      1.7413  H       1  LIG       0.0000
    15  H15       -0.8125      0.5082     -0.0081  H       1  LIG       0.0000
    16  H16        0.5452      0.8914      0.9055  H       1  LIG       0.0000
    17  H17        1.2107     -0.3973     -0.0370  H       1  LIG       0.0000
    18  H18       -0.5440     -0.5534     -0.9796  H       1  LIG       0.0000
    19  H19        0.7242     -1.3266     -2.2871  H       1  LIG       0.0000
@<TRIPOS>BOND
    1     1    11  1
    2     2    14  1
    3     2    13  1
    4     1     2  1
    5     1    10  1
    6     1    12  1
    7     2     3  1
    8     3     9  1
    9     8     9  1
   10     3    15  1
   11     3     4  1
   12     8    18  1
   13     8    19  1
   14     6     8  1
   15     4     5  1
   16     5     6  1
   17     6     7  2
   18     5    16  1
   19     5    17  1
