@<TRIPOS>MOLECULE
generated_molecule
20 20 0 0 0
SMALL
NO_CHARGES

@<TRIPOS>ATOM
     1  C1         0.9218      2.0200      0.1699  C       1  LIG       0.0000
     2  N2         0.6475      0.6589     -0.0888  N       1  LIG       0.0000
     3  C3        -0.9799      0.6322     -0.5380  C       1  LIG       0.0000
     4  C4        -1.2302     -0.4993      0.2759  C       1  LIG       0.0000
     5  C5        -0.4816     -2.0278     -0.1649  C       1  LIG       0.0000
     6  O6         0.2709     -2.3823      0.5039  O       1  LIG       0.0000
     7  C7         1.6242     -1.3262      0.9368  C       1  LIG       0.0000
     8  O8         1.9177     -2.3036      0.9867  O       1  LIG       0.0000
     9  C9         1.0195     -0.1115      1.4391  C       1  LIG       0.0000
    10  H10        0.8711      2.1601     -1.2637  H       1  LIG       0.0000
    11  H11       -0.5208      2.5459      0.8360  H       1  LIG       0.0000
    12  H12        0.5141      2.5443     -0.9824  H       1  LIG       0.0000
    13  H13       -0.6140      1.5743     -1.3414  H       1  LIG       0.0000
    14  H14       -1.5372      1.0541      0.8020  H       1  LIG       0.0000
    15  H15       -1.4838     -0.3831     -0.5390  H       1  LIG       0.0000
    16  H16       -2.1721     -0.6376      0.2075  H       1  LIG       0.0000
    17  H17       -0.1032     -2.0138     -1.4556  H       1  LIG       0.0000
    18  H18        0.3076     -1.4802     -1.4925  H       1  LIG       0.0000
    19  H19       -0.1647      0.5209      1.6044  H       1  LIG       0.0000
    20  H20        1.1931     -0.5453      0.1039  H       1  LIG       0.0000
@<TRIPOS>BOND
    1     4    15  1
    2     3    13  1
    3     3    14  1
    4     3     4  1
    5     4    16  1
    6     4     5  1
    7     2     3  1
    8     5    17  1
    9     5    18  1
   10     5     6  1
   11     1     2  1
   12     2     9  1
   13     1    11  1
   14     9    20  1
   15     6     7  1
   16     1    10  1
   17     1    12  1
   18     7     9  1
   19     9    19  1
   20     7     8  2
