@<TRIPOS>MOLECULE
generated_molecule
11 11 0 0 0
SMALL
NO_CHARGES

@<TRIPOS>ATOM
     1  O1         0.7966      1.2917      0.6539  O       1  LIG       0.0000
     2  C2         0.5162      1.0515      0.6456  C       1  LIG       0.0000
     3  C3         0.2932     -0.2760      1.0737  C       1  LIG       0.0000
     4  O4        -1.0686     -0.9462      0.6504  O       1  LIG       0.0000
     5  C5        -1.2657     -1.1182     -0.8360  C       1  LIG       0.0000
     6  O6        -2.5225     -0.4063     -0.9577  O       1  LIG       0.0000
     7  O7         0.9566     -1.2628     -0.0134  O       1  LIG       0.0000
     8  N8         2.0125      0.0571      0.1442  N       1  LIG       0.0000
     9  N9         1.1165      0.4498     -0.5650  N       1  LIG       0.0000
    10  H10        0.4533      2.1221     -0.4050  H       1  LIG       0.0000
    11  H11       -1.2880     -0.9627     -0.3908  H       1  LIG       0.0000
@<TRIPOS>BOND
    1     1     2  1
    2     1    10  1
    3     2     3  ar
    4     2     9  ar
    5     3     4  1
    6     3     7  ar
    7     4     5  1
    8     5     6  2
    9     5    11  1
   10     7     8  ar
   11     8     9  ar
