@<TRIPOS>MOLECULE
generated_molecule
18 17 0 0 0
SMALL
NO_CHARGES

@<TRIPOS>ATOM
     1  C1        -1.3558      1.0799     -1.2090  C       1  LIG       0.0000
     2  C2        -0.9699      0.0353     -1.5727  C       1  LIG       0.0000
     3  O3        -0.1629      0.5187     -0.5826  O       1  LIG       0.0000
     4  C4         1.6309      0.9737      0.3440  C       1  LIG       0.0000
     5  O5         1.2306     -0.4140     -0.3524  O       1  LIG       0.0000
     6  C6         1.0062     -0.3379      1.2291  C       1  LIG       0.0000
     7  N7         0.5557     -1.7548      2.1712  N       1  LIG       0.0000
     8  C8        -0.2791     -0.0652     -0.4557  C       1  LIG       0.0000
     9  C9        -0.8057     -2.2010     -0.0078  C       1  LIG       0.0000
    10  H10       -2.2150      1.0033     -2.1714  H       1  LIG       0.0000
    11  H11       -0.6306      1.0510      0.0084  H       1  LIG       0.0000
    12  H12       -0.6940      2.2874     -1.4436  H       1  LIG       0.0000
    13  H13       -0.4386     -0.1408     -0.2647  H       1  LIG       0.0000
    14  H14        1.0799     -0.3694      0.9769  H       1  LIG       0.0000
    15  H15        2.2790     -0.2987      0.8202  H       1  LIG       0.0000
    16  H16       -0.9901     -0.1342      1.5229  H       1  LIG       0.0000
    17  H17        0.0727      0.1556      2.2224  H       1  LIG       0.0000
    18  H18        0.6869     -1.3890     -1.2351  H       1  LIG       0.0000
@<TRIPOS>BOND
    1     9    18  1
    2     8     9  3
    3     2     8  1
    4     1    11  1
    5     1    10  1
    6     1     2  1
    7     1    12  1
    8     2     3  1
    9     2    13  1
   10     3     4  1
   11     6    14  1
   12     6    15  1
   13     4     6  1
   14     6     7  1
   15     4     5  2
   16     7    17  1
   17     7    16  1
