@<TRIPOS>MOLECULE
generated_molecule
25 25 0 0 0
SMALL
NO_CHARGES

@<TRIPOS>ATOM
     1  C1         0.1067      2.8959      0.3941  C       1  LIG       0.0000
     2  C2        -0.8775      1.4307      1.2552  C       1  LIG       0.0000
     3  C3        -0.6430      0.7070      0.0424  C       1  LIG       0.0000
     4  C4        -0.7081     -0.2549     -0.2437  C       1  LIG       0.0000
     5  C5        -1.2850     -1.7204     -0.0546  C       1  LIG       0.0000
     6  C6         0.6937     -0.7321      0.8271  C       1  LIG       0.0000
     7  C7         0.0841     -1.1438      0.9446  C       1  LIG       0.0000
     8  C8        -0.1119     -1.5565     -0.7708  C       1  LIG       0.0000
     9  O9        -0.5234     -3.2951     -1.2285  O       1  LIG       0.0000
    10  H10        1.2223      2.3784     -0.3716  H       1  LIG       0.0000
    11  H11        1.4747      2.5394      0.5524  H       1  LIG       0.0000
    12  H12        0.1066      3.5680     -0.1928  H       1  LIG       0.0000
    13  H13       -0.3746      0.6785     -0.0860  H       1  LIG       0.0000
    14  H14        0.7603      1.3750      0.4433  H       1  LIG       0.0000
    15  H15        0.5896      0.0681     -0.2299  H       1  LIG       0.0000
    16  H16       -0.5215      1.3780     -0.8817  H       1  LIG       0.0000
    17  H17       -0.1222     -1.5548      0.2698  H       1  LIG       0.0000
    18  H18        0.0588     -1.2278     -0.3259  H       1  LIG       0.0000
    19  H19       -0.6721     -0.3028     -0.2617  H       1  LIG       0.0000
    20  H20        0.9845      0.5159      0.0740  H       1  LIG       0.0000
    21  H21        0.2137      0.2966     -0.1320  H       1  LIG       0.0000
    22  H22       -0.3710     -0.5867      0.3003  H       1  LIG       0.0000
    23  H23       -0.1045     -2.0501      0.6667  H       1  LIG       0.0000
    24  H24       -0.0810     -1.4682     -0.0635  H       1  LIG       0.0000
    25  H25        0.1009     -1.9386     -0.9273  H       1  LIG       0.0000
@<TRIPOS>BOND
    1     2    14  1
    2     1    11  1
    3     1    10  1
    4     1     2  1
    5     1    12  1
    6     2    13  1
    7     2     3  1
    8     4    18  1
    9     3    15  1
   10     3     4  1
   11     3    16  1
   12     4    17  1
   13     4     5  1
   14     6    21  1
   15     8    25  1
   16     5     9  1
   17     8     9  1
   18     5     6  1
   19     5    19  1
   20     6    20  1
   21     6     7  1
   22     7     8  1
   23     8    24  1
   24     7    23  1
   25     7    22  1
