@<TRIPOS>MOLECULE
generated_molecule
16 16 0 0 0
SMALL
NO_CHARGES

@<TRIPOS>ATOM
     1  O1         1.5980      1.6242     -0.7548  O       1  LIG       0.0000
     2  C2         0.4807      0.9129     -0.1106  C       1  LIG       0.0000
     3  C3        -0.3703      0.9199      0.5558  C       1  LIG       0.0000
     4  N4        -1.2377      0.8349     -0.4619  N       1  LIG       0.0000
     5  C5        -1.6875     -0.7466      0.5074  C       1  LIG       0.0000
     6  O6        -2.5890     -1.1499     -0.6066  O       1  LIG       0.0000
     7  C7        -0.4381     -0.6246     -0.2070  C       1  LIG       0.0000
     8  C8         0.5058     -1.3407      0.4049  C       1  LIG       0.0000
     9  C9        -0.0866     -3.0540      0.3111  C       1  LIG       0.0000
    10  H10        1.6399      2.3814     -0.1131  H       1  LIG       0.0000
    11  H11        1.4911      0.5666     -1.0391  H       1  LIG       0.0000
    12  H12        1.4264     -0.1801      0.3869  H       1  LIG       0.0000
    13  H13       -1.1886      0.9703      0.5820  H       1  LIG       0.0000
    14  H14       -0.2237      1.9673     -0.6550  H       1  LIG       0.0000
    15  H15        0.8697     -1.1605      0.2936  H       1  LIG       0.0000
    16  H16       -0.1901     -1.9211      0.9065  H       1  LIG       0.0000
@<TRIPOS>BOND
    1     5     6  2
    2     4    14  1
    3     4     5  1
    4     5     7  1
    5     3     4  1
    6     2    11  1
    7     1    10  1
    8     1     2  1
    9     2     3  1
   10     2    12  1
   11     3     7  1
   12     3    13  1
   13     7     8  1
   14     7    15  1
   15     8     9  3
   16     9    16  1
