@<TRIPOS>MOLECULE
generated_molecule
19 21 0 0 0
SMALL
NO_CHARGES

@<TRIPOS>ATOM
     1  C1        -1.7054      1.9158     -1.0164  C       1  LIG       0.0000
     2  C2        -1.4370      0.4060     -0.1837  C       1  LIG       0.0000
     3  C3        -0.5496     -0.8629     -0.4919  C       1  LIG       0.0000
     4  C4         0.1808     -0.4151     -0.2037  C       1  LIG       0.0000
     5  C5         0.7106     -1.8553      1.2938  C       1  LIG       0.0000
     6  C6         1.5534     -0.6357      0.6820  C       1  LIG       0.0000
     7  C7         1.1481     -0.1514      0.6622  C       1  LIG       0.0000
     8  O8         2.1226     -1.0880     -0.1639  O       1  LIG       0.0000
     9  C9        -0.5111      0.5258      0.6889  C       1  LIG       0.0000
    10  H10       -0.2461      2.3012     -0.8580  H       1  LIG       0.0000
    11  H11       -1.4037      2.7011     -0.5945  H       1  LIG       0.0000
    12  H12       -0.7639      1.4208     -1.7655  H       1  LIG       0.0000
    13  H13       -2.6892     -0.3023      0.1512  H       1  LIG       0.0000
    14  H14       -0.4671     -0.8284     -1.5827  H       1  LIG       0.0000
    15  H15       -0.2430     -1.4375     -0.1054  H       1  LIG       0.0000
    16  H16        0.9167     -0.6301      2.2418  H       1  LIG       0.0000
    17  H17        1.9615     -1.0319      1.3996  H       1  LIG       0.0000
    18  H18        2.2970     -0.5854      0.6006  H       1  LIG       0.0000
    19  H19       -0.8749      0.5532     -0.7546  H       1  LIG       0.0000
@<TRIPOS>BOND
    1     5    16  1
    2     4    15  1
    3     4     5  1
    4     5    17  1
    5     5     6  1
    6     4     6  1
    7     3     4  1
    8     6    18  1
    9     6     7  1
   10     3    14  1
   11     2     3  1
   12     3     9  1
   13     1    11  1
   14     7     9  1
   15     7     8  2
   16     1     2  1
   17     2     9  1
   18     2    13  1
   19     1    10  1
   20     1    12  1
   21     9    19  1
