@<TRIPOS>MOLECULE
generated_molecule
22 23 0 0 0
SMALL
NO_CHARGES

@<TRIPOS>ATOM
     1  C1        -1.4621     -0.3139     -2.4558  C       1  LIG       0.0000
     2  C2        -0.4599     -0.6400     -0.8883  C       1  LIG       0.0000
     3  C3        -0.7637      1.2296     -1.0192  C       1  LIG       0.0000
     4  C4         0.5401      0.0830     -1.5807  C       1  LIG       0.0000
     5  N5        -0.3110      0.6790     -1.2585  N       1  LIG       0.0000
     6  C6        -0.1195      0.4668      0.7645  C       1  LIG       0.0000
     7  C7         1.1315      0.5082      2.4330  C       1  LIG       0.0000
     8  O8         0.4278      0.3791      1.5320  O       1  LIG       0.0000
     9  C9         0.6905     -0.8420      1.9388  C       1  LIG       0.0000
    10  H10       -0.2604     -0.6508     -1.7498  H       1  LIG       0.0000
    11  H11       -2.3210     -1.0946     -1.1199  H       1  LIG       0.0000
    12  H12       -1.1873     -1.5037     -1.7399  H       1  LIG       0.0000
    13  H13        0.1918      1.3551      0.1286  H       1  LIG       0.0000
    14  H14       -0.2024      1.0025      0.8870  H       1  LIG       0.0000
    15  H15       -1.7422      1.1947     -0.0314  H       1  LIG       0.0000
    16  H16        0.9173     -1.0148     -0.6102  H       1  LIG       0.0000
    17  H17        1.7852      0.8653     -1.2466  H       1  LIG       0.0000
    18  H18       -1.1263     -0.6286      0.4648  H       1  LIG       0.0000
    19  H19        0.0583      0.2350      2.6079  H       1  LIG       0.0000
    20  H20        1.6610      0.2057      1.2453  H       1  LIG       0.0000
    21  H21        0.5897     -0.7643      1.3054  H       1  LIG       0.0000
    22  H22        1.9625     -0.7513      0.3928  H       1  LIG       0.0000
@<TRIPOS>BOND
    1     3    13  1
    2     1    11  1
    3     4    16  1
    4     3    14  1
    5     2     3  1
    6     3    15  1
    7     1    10  1
    8     1     2  1
    9     1    12  1
   10     4    17  1
   11     2     4  1
   12     4     5  1
   13     2     5  1
   14     5     6  1
   15     6    18  1
   16     6     9  1
   17     6     7  1
   18     9    21  1
   19     9    22  1
   20     8     9  1
   21     7    20  1
   22     7    19  1
   23     7     8  1
