@<TRIPOS>MOLECULE
generated_molecule
19 20 0 0 0
SMALL
NO_CHARGES

@<TRIPOS>ATOM
     1  O1        -0.5979     -2.1081      1.2402  O       1  LIG       0.0000
     2  C2        -0.4242     -1.8300     -0.8240  C       1  LIG       0.0000
     3  N3        -0.7153     -0.4487     -0.2541  N       1  LIG       0.0000
     4  C4        -1.0331      0.7995     -0.8178  C       1  LIG       0.0000
     5  C5         0.6857      1.0617     -1.0824  C       1  LIG       0.0000
     6  C6         1.2731      0.7506      0.6479  C       1  LIG       0.0000
     7  C7         0.1657      0.2522      1.2988  C       1  LIG       0.0000
     8  N8         0.2188      0.7201      0.2867  N       1  LIG       0.0000
     9  C9         1.5819      0.5922     -0.2514  C       1  LIG       0.0000
    10  H10       -0.5802     -1.8373     -1.2495  H       1  LIG       0.0000
    11  H11       -0.7352     -0.5759     -1.6508  H       1  LIG       0.0000
    12  H12       -1.0523     -0.0332      0.5903  H       1  LIG       0.0000
    13  H13       -1.5057      0.3628      0.8161  H       1  LIG       0.0000
    14  H14       -0.6523      1.7933     -1.0903  H       1  LIG       0.0000
    15  H15        0.9722      1.7917      0.8794  H       1  LIG       0.0000
    16  H16       -0.7754     -1.2249      0.9682  H       1  LIG       0.0000
    17  H17       -0.9323     -0.8333      1.0894  H       1  LIG       0.0000
    18  H18        2.0560     -0.4810     -0.3917  H       1  LIG       0.0000
    19  H19        2.0505      1.2482     -0.2048  H       1  LIG       0.0000
@<TRIPOS>BOND
    1     7    16  1
    2     7    17  1
    3     7     8  1
    4     6     7  1
    5     3    11  1
    6     8     9  1
    7     5     8  1
    8     9    19  1
    9     4    13  1
   10     2    10  1
   11     2     3  1
   12     3     4  1
   13     6     9  1
   14     9    18  1
   15     1     2  2
   16     4     5  1
   17     4    12  1
   18     5     6  1
   19     6    15  1
   20     5    14  1
