@<TRIPOS>MOLECULE
generated_molecule
18 21 0 0 0
SMALL
NO_CHARGES

@<TRIPOS>ATOM
     1  O1         0.7129      1.5264      0.4482  O       1  LIG       0.0000
     2  C2        -0.0029      1.0276     -0.7888  C       1  LIG       0.0000
     3  C3         1.3859     -0.6905     -0.6950  C       1  LIG       0.0000
     4  C4         0.4251     -0.6858     -0.9360  C       1  LIG       0.0000
     5  C5        -1.1264     -0.9813     -0.0181  C       1  LIG       0.0000
     6  C6        -0.2244     -1.4554     -0.2537  C       1  LIG       0.0000
     7  N7        -0.5316      0.1182      0.6499  N       1  LIG       0.0000
     8  C8        -1.4356      0.5638     -0.6714  C       1  LIG       0.0000
     9  C9        -0.0088      1.2215     -0.5113  C       1  LIG       0.0000
    10  H10        2.0958      1.9117      0.2366  H       1  LIG       0.0000
    11  H11        2.1604     -0.2455      0.4683  H       1  LIG       0.0000
    12  H12        1.6151     -0.2175      0.7067  H       1  LIG       0.0000
    13  H13       -0.2949     -0.7485     -0.1880  H       1  LIG       0.0000
    14  H14       -1.6997      0.0839      0.3326  H       1  LIG       0.0000
    15  H15       -0.0495     -2.1998      0.1377  H       1  LIG       0.0000
    16  H16       -1.6558     -1.5141      0.1292  H       1  LIG       0.0000
    17  H17       -1.3883      1.1185      0.6872  H       1  LIG       0.0000
    18  H18        0.0228      1.1667      0.2662  H       1  LIG       0.0000
@<TRIPOS>BOND
    1     3    11  1
    2     3    12  1
    3     3     4  1
    4     2     3  1
    5     4    13  1
    6     4     9  1
    7     4     5  1
    8     9    18  1
    9     1     2  1
   10     1    10  1
   11     2     9  1
   12     2     8  1
   13     7     9  1
   14     5    14  1
   15     5     8  1
   16     5     6  1
   17     7     8  1
   18     8    17  1
   19     6    15  1
   20     6     7  1
   21     6    16  1
