@<TRIPOS>MOLECULE
generated_molecule
23 22 0 0 0
SMALL
NO_CHARGES

@<TRIPOS>ATOM
     1  C1        -0.3063      1.8586     -0.4391  C       1  LIG       0.0000
     2  C2        -0.0687      0.2780      0.2895  C       1  LIG       0.0000
     3  C3         0.6851     -0.4825     -0.7380  C       1  LIG       0.0000
     4  O4        -0.7082     -1.4569     -1.0594  O       1  LIG       0.0000
     5  C5        -0.3276     -1.8659      0.0560  C       1  LIG       0.0000
     6  C6        -0.3761     -0.2789     -1.1239  C       1  LIG       0.0000
     7  C7         0.4207     -0.0208      0.9226  C       1  LIG       0.0000
     8  C8         0.2673     -0.6501      0.9717  C       1  LIG       0.0000
     9  C9        -0.2936     -1.9608      0.7652  C       1  LIG       0.0000
    10  H10        1.1350      1.7147     -0.0795  H       1  LIG       0.0000
    11  H11        1.0618      1.5005     -0.5041  H       1  LIG       0.0000
    12  H12       -1.6154      1.1103     -0.6740  H       1  LIG       0.0000
    13  H13       -0.2096     -1.1189      0.5681  H       1  LIG       0.0000
    14  H14        0.0716     -0.1362      0.7863  H       1  LIG       0.0000
    15  H15       -0.4842      0.6105     -1.3055  H       1  LIG       0.0000
    16  H16       -0.9859     -0.5981      0.5880  H       1  LIG       0.0000
    17  H17        0.1752      0.6951      0.2440  H       1  LIG       0.0000
    18  H18       -0.9499      0.9898     -0.3229  H       1  LIG       0.0000
    19  H19        1.2256      0.5772      0.3362  H       1  LIG       0.0000
    20  H20       -0.0359      0.9368     -0.2225  H       1  LIG       0.0000
    21  H21        1.7778      0.0776     -0.2406  H       1  LIG       0.0000
    22  H22        0.2687     -1.1791      0.5005  H       1  LIG       0.0000
    23  H23       -0.7272     -0.6011      0.6814  H       1  LIG       0.0000
@<TRIPOS>BOND
    1     6    17  1
    2     6    18  1
    3     7    21  1
    4     6    19  1
    5     5     6  1
    6     5    16  1
    7     5     7  1
    8     4     5  1
    9     7    20  1
   10     7    22  1
   11     9    23  1
   12     8     9  3
   13     3    15  1
   14     3     8  1
   15     3     4  1
   16     2     3  1
   17     1    11  1
   18     2    14  1
   19     1     2  1
   20     2    13  1
   21     1    10  1
   22     1    12  1
