@<TRIPOS>MOLECULE
generated_molecule
19 19 0 0 0
SMALL
NO_CHARGES

@<TRIPOS>ATOM
     1  C1         0.4083      1.7317      1.4467  C       1  LIG       0.0000
     2  O2         0.8509      0.6284      0.2333  O       1  LIG       0.0000
     3  C3         1.2613      0.5684      0.4364  C       1  LIG       0.0000
     4  C4         0.0537      0.7596      0.8413  C       1  LIG       0.0000
     5  C5        -0.1711     -0.5344      0.0970  C       1  LIG       0.0000
     6  C6         0.6543     -1.1909     -0.8239  C       1  LIG       0.0000
     7  C7        -1.1753     -2.3496     -0.9407  C       1  LIG       0.0000
     8  O8        -1.6791     -2.1838     -1.1077  O       1  LIG       0.0000
     9  C9         0.4638     -0.6357     -0.2152  C       1  LIG       0.0000
    10  H10        0.2501      2.7481     -0.0126  H       1  LIG       0.0000
    11  H11       -0.3978      2.4168      1.1832  H       1  LIG       0.0000
    12  H12        0.9731      2.2844      0.8160  H       1  LIG       0.0000
    13  H13       -0.2155      0.6126      0.1667  H       1  LIG       0.0000
    14  H14       -0.7788      0.7613     -0.2934  H       1  LIG       0.0000
    15  H15       -0.6132     -0.1063      1.5269  H       1  LIG       0.0000
    16  H16       -0.8257     -0.9987     -1.3325  H       1  LIG       0.0000
    17  H17        0.2069     -1.2617     -0.7193  H       1  LIG       0.0000
    18  H18       -0.7803     -2.3581     -0.0549  H       1  LIG       0.0000
    19  H19        1.5144     -0.8921     -1.2472  H       1  LIG       0.0000
@<TRIPOS>BOND
    1     7     8  2
    2     7    18  1
    3     6     7  1
    4     6     9  2
    5     5     6  1
    6     5    16  1
    7     9    19  1
    8     3     9  1
    9     5    17  1
   10     4     5  1
   11     3    13  1
   12     3     4  1
   13     2     3  1
   14     4    14  1
   15     4    15  1
   16     1    11  1
   17     1    10  1
   18     1     2  1
   19     1    12  1
