@<TRIPOS>MOLECULE
generated_molecule
14 15 0 0 0
SMALL
NO_CHARGES

@<TRIPOS>ATOM
     1  N1         1.2361      0.3458     -1.3078  N       1  LIG       0.0000
     2  C2         1.4676      0.4204     -0.0538  C       1  LIG       0.0000
     3  N3         1.1063     -0.7020     -0.2221  N       1  LIG       0.0000
     4  C4        -0.8071      0.0414      0.0763  C       1  LIG       0.0000
     5  C5         0.3071     -1.4207     -0.3342  C       1  LIG       0.0000
     6  N6        -0.2742     -1.8712      1.0932  N       1  LIG       0.0000
     7  C7        -0.4938      1.1012      0.3752  C       1  LIG       0.0000
     8  C8        -0.9713      1.3510      0.6289  C       1  LIG       0.0000
     9  O9        -1.3913      0.4031     -0.3182  O       1  LIG       0.0000
    10  H10        0.5704      1.1671     -1.8616  H       1  LIG       0.0000
    11  H11        2.1242      0.3770      0.0935  H       1  LIG       0.0000
    12  H12       -1.1808     -1.2860     -0.4909  H       1  LIG       0.0000
    13  H13       -0.6820      0.4606      1.3721  H       1  LIG       0.0000
    14  H14       -1.0109     -0.3877      0.9493  H       1  LIG       0.0000
@<TRIPOS>BOND
    1     1    10  1
    2     1     2  1
    3     7     9  1
    4     8     9  1
    5     2     7  1
    6     2     3  1
    7     4    12  1
    8     7     8  1
    9     4     7  1
   10     3    11  1
   11     8    14  1
   12     3     4  1
   13     8    13  1
   14     4     5  1
   15     5     6  3
