@<TRIPOS>MOLECULE
generated_molecule
12 12 0 0 0
SMALL
NO_CHARGES

@<TRIPOS>ATOM
     1  N1         0.4037      1.2368      1.2604  N       1  LIG       0.0000
     2  C2         0.3750     -0.1059      0.4993  C       1  LIG       0.0000
     3  C3        -0.4097      0.3321     -0.5139  C       1  LIG       0.0000
     4  O4        -0.3224     -0.5439     -0.5510  O       1  LIG       0.0000
     5  C5         1.2534     -1.0145     -0.5393  C       1  LIG       0.0000
     6  O6         1.9430     -1.4634     -0.8833  O       1  LIG       0.0000
     7  O7         1.6497     -0.0622     -0.4644  O       1  LIG       0.0000
     8  C8        -1.5766     -0.9018     -0.3880  C       1  LIG       0.0000
     9  C9        -3.0735     -0.5633      0.5253  C       1  LIG       0.0000
    10  H10        1.1785      2.1227      0.7266  H       1  LIG       0.0000
    11  H11        1.0849      1.8190      0.3154  H       1  LIG       0.0000
    12  H12       -2.5060     -0.8556      0.0129  H       1  LIG       0.0000
@<TRIPOS>BOND
    1     1     2  1
    2     1    10  1
    3     1    11  1
    4     2     3  ar
    5     2     7  ar
    6     3     4  ar
    7     3     8  1
    8     4     5  ar
    9     5     6  2
   10     5     7  ar
   11     8     9  3
   12     9    12  1
