@<TRIPOS>MOLECULE
generated_molecule
20 21 0 0 0
SMALL
NO_CHARGES

@<TRIPOS>ATOM
     1  C1        -1.5577      0.1899      0.2799  C       1  LIG       0.0000
     2  C2        -1.5106     -0.7799      0.3767  C       1  LIG       0.0000
     3  C3        -0.5825     -0.3895     -0.9514  C       1  LIG       0.0000
     4  C4         0.8438     -0.4652     -1.3753  C       1  LIG       0.0000
     5  N5         1.1733     -0.2473     -0.8545  N       1  LIG       0.0000
     6  O6         2.3690     -0.8129     -2.0603  O       1  LIG       0.0000
     7  C7         0.2911     -1.0936      0.3011  C       1  LIG       0.0000
     8  C8         1.6205     -0.1268      1.9534  C       1  LIG       0.0000
     9  C9         0.3156     -0.3366      1.7452  C       1  LIG       0.0000
    10  H10       -1.2456      0.9572      0.4571  H       1  LIG       0.0000
    11  H11       -1.9068      1.5098      0.2569  H       1  LIG       0.0000
    12  H12       -2.5093     -0.3078     -1.0089  H       1  LIG       0.0000
    13  H13       -1.2043     -0.6236      0.5602  H       1  LIG       0.0000
    14  H14       -0.5261      1.0892     -0.9894  H       1  LIG       0.0000
    15  H15       -0.3151      0.4239     -2.1978  H       1  LIG       0.0000
    16  H16        1.7262      1.1169     -1.2075  H       1  LIG       0.0000
    17  H17        1.0793     -1.9129      0.0207  H       1  LIG       0.0000
    18  H18        0.8198      1.2022      1.8976  H       1  LIG       0.0000
    19  H19        1.1615      1.2657      1.1762  H       1  LIG       0.0000
    20  H20       -0.0421     -0.6585      1.6201  H       1  LIG       0.0000
@<TRIPOS>BOND
    1     6    16  1
    2     5     6  1
    3     3    14  1
    4     3    15  1
    5     4     5  1
    6     3     4  1
    7     2     3  1
    8     1    11  1
    9     4     7  1
   10     1    10  1
   11     1     2  1
   12     1    12  1
   13     2    13  1
   14     2     9  1
   15     8    19  1
   16     7     8  1
   17     7     9  1
   18     7    17  1
   19     8     9  1
   20     8    18  1
   21     9    20  1
