@<TRIPOS>MOLECULE
generated_molecule
19 20 0 0 0
SMALL
NO_CHARGES

@<TRIPOS>ATOM
     1  C1        -0.8830      2.6991     -0.0855  C       1  LIG       0.0000
     2  C2        -0.8137      0.5528     -0.3305  C       1  LIG       0.0000
     3  C3        -0.8353      0.1711     -1.8836  C       1  LIG       0.0000
     4  C4        -0.1381     -0.8525     -1.1543  C       1  LIG       0.0000
     5  O5         0.5171     -1.7465     -2.0062  O       1  LIG       0.0000
     6  C6        -0.4608     -0.7640      0.3440  C       1  LIG       0.0000
     7  C7         1.2568     -1.1479      1.3269  C       1  LIG       0.0000
     8  O8         0.1899     -2.3350      0.0099  O       1  LIG       0.0000
     9  C9        -0.4434      0.8377      1.0774  C       1  LIG       0.0000
    10  H10        0.2056      3.0560      0.9151  H       1  LIG       0.0000
    11  H11       -1.6433      2.0836      0.8891  H       1  LIG       0.0000
    12  H12        0.3386      3.2317      0.6499  H       1  LIG       0.0000
    13  H13       -1.6603      1.0566     -1.6184  H       1  LIG       0.0000
    14  H14       -0.2770     -2.1793     -0.6722  H       1  LIG       0.0000
    15  H15        1.3939     -2.0176     -2.1163  H       1  LIG       0.0000
    16  H16        1.3883     -2.6272      1.0049  H       1  LIG       0.0000
    17  H17        1.6445     -1.5223      1.0919  H       1  LIG       0.0000
    18  H18       -0.7020      0.2628      1.6636  H       1  LIG       0.0000
    19  H19        0.9220      1.2407      0.8943  H       1  LIG       0.0000
@<TRIPOS>BOND
    1     3    13  1
    2     5    15  1
    3     4     5  1
    4     3     4  1
    5     2     3  2
    6     1    11  1
    7     4    14  1
    8     4     6  1
    9     1     2  1
   10     2     9  1
   11     1    10  1
   12     1    12  1
   13     6     8  1
   14     6     9  1
   15     6     7  1
   16     7     8  1
   17     7    17  1
   18     9    19  1
   19     9    18  1
   20     7    16  1
