@<TRIPOS>MOLECULE
generated_molecule
18 19 0 0 0
SMALL
NO_CHARGES

@<TRIPOS>ATOM
     1  O1        -1.1686     -3.2853      0.5543  O       1  LIG       0.0000
     2  C2        -1.8230     -1.6016      0.2530  C       1  LIG       0.0000
     3  N3        -0.9357     -1.0143     -0.6963  N       1  LIG       0.0000
     4  C4        -0.3777      0.6406     -0.3369  C       1  LIG       0.0000
     5  C5        -0.5362      1.1479     -0.5802  C       1  LIG       0.0000
     6  C6         1.1898      1.1270      0.0492  C       1  LIG       0.0000
     7  C7         0.9172      1.1260      0.5074  C       1  LIG       0.0000
     8  C8         0.7134     -1.1195      0.4859  C       1  LIG       0.0000
     9  C9         0.0818     -0.8912      1.0071  C       1  LIG       0.0000
    10  H10       -2.9438     -0.7395      0.7775  H       1  LIG       0.0000
    11  H11        0.6593     -0.1863     -0.3459  H       1  LIG       0.0000
    12  H12        0.4294      0.9849      0.6216  H       1  LIG       0.0000
    13  H13       -0.4327      0.8097     -1.0894  H       1  LIG       0.0000
    14  H14       -0.2518      1.5245      1.1479  H       1  LIG       0.0000
    15  H15        0.2538      0.3988     -1.3151  H       1  LIG       0.0000
    16  H16        1.7642      1.7161     -0.5256  H       1  LIG       0.0000
    17  H17        1.0423     -0.1836     -0.6716  H       1  LIG       0.0000
    18  H18        1.4184     -0.4541      0.1572  H       1  LIG       0.0000
@<TRIPOS>BOND
    1     9    18  1
    2     4    11  1
    3     3     9  1
    4     3     4  1
    5     2     3  1
    6     4     9  1
    7     8     9  1
    8     4     5  1
    9     2    10  1
   10     1     2  2
   11     8    17  1
   12     7     8  2
   13     5    13  1
   14     5    12  1
   15     5     6  1
   16     6     7  1
   17     7    16  1
   18     6    15  1
   19     6    14  1
