@<TRIPOS>MOLECULE
generated_molecule
16 16 0 0 0
SMALL
NO_CHARGES

@<TRIPOS>ATOM
     1  C1         1.0242      2.1473      0.8257  C       1  LIG       0.0000
     2  C2        -0.1867      1.0964      0.5048  C       1  LIG       0.0000
     3  C3        -0.1043     -0.4806     -0.0523  C       1  LIG       0.0000
     4  C4         0.3043     -1.6808     -1.0655  C       1  LIG       0.0000
     5  O5         1.2068     -1.3161     -2.1088  O       1  LIG       0.0000
     6  N6        -0.3822     -2.1119     -0.4029  N       1  LIG       0.0000
     7  C7        -1.2402     -2.6036      0.0095  C       1  LIG       0.0000
     8  N8        -0.6643     -1.0786      1.3677  N       1  LIG       0.0000
     9  H9         1.1260      3.1659      0.3160  H       1  LIG       0.0000
    10  H10        0.2967      2.2562      1.9029  H       1  LIG       0.0000
    11  H11        0.9043      2.0698     -0.7969  H       1  LIG       0.0000
    12  H12        0.3198      1.7877     -0.3698  H       1  LIG       0.0000
    13  H13       -1.3858      0.7409      0.2842  H       1  LIG       0.0000
    14  H14       -0.1676     -1.5194     -1.7597  H       1  LIG       0.0000
    15  H15       -1.3411     -2.7207      0.4991  H       1  LIG       0.0000
    16  H16        0.2900      0.2475      0.8458  H       1  LIG       0.0000
@<TRIPOS>BOND
    1     5    14  1
    2     4     5  1
    3     4     6  ar
    4     3     4  ar
    5     2    12  1
    6     6     7  ar
    7     1    10  1
    8     2     3  1
    9     3     8  ar
   10     1     2  1
   11     2    13  1
   12     1     9  1
   13     1    11  1
   14     7     8  ar
   15     7    15  1
   16     8    16  1
