@<TRIPOS>MOLECULE
generated_molecule
16 17 0 0 0
SMALL
NO_CHARGES

@<TRIPOS>ATOM
     1  N1         0.5156      0.5702     -0.5279  N       1  LIG       0.0000
     2  C2         0.8916     -0.2019     -0.6704  C       1  LIG       0.0000
     3  C3         0.2969     -1.8377     -0.7663  C       1  LIG       0.0000
     4  N4         0.4422     -2.0806      0.1023  N       1  LIG       0.0000
     5  C5         0.9496     -0.2251      0.8012  C       1  LIG       0.0000
     6  N6        -0.5487     -0.4637      0.7917  N       1  LIG       0.0000
     7  C7        -1.1624      0.2954     -0.2514  C       1  LIG       0.0000
     8  C8         0.1941      0.6684      0.6537  C       1  LIG       0.0000
     9  O9        -0.4428      1.5973      0.3016  O       1  LIG       0.0000
    10  H10        0.7764      0.9480     -1.1931  H       1  LIG       0.0000
    11  H11       -0.0530      1.3360     -1.5939  H       1  LIG       0.0000
    12  H12        1.6953     -0.3569      2.0590  H       1  LIG       0.0000
    13  H13        0.2970     -1.7171      0.1713  H       1  LIG       0.0000
    14  H14       -0.6983      0.0771     -1.6887  H       1  LIG       0.0000
    15  H15       -1.7395     -0.4083      0.8246  H       1  LIG       0.0000
    16  H16       -1.4139      1.7988      0.9863  H       1  LIG       0.0000
@<TRIPOS>BOND
    1     9    16  1
    2     3     4  3
    3     8     9  1
    4     2     3  1
    5     1     2  1
    6     1    11  1
    7     1    10  1
    8     2     8  1
    9     2     5  1
   10     7     8  1
   11     5     8  1
   12     7    15  1
   13     7    14  1
   14     6     7  1
   15     5    12  1
   16     5     6  1
   17     6    13  1
