@<TRIPOS>MOLECULE
generated_molecule
16 17 0 0 0
SMALL
NO_CHARGES

@<TRIPOS>ATOM
     1  O1        -0.4766     -2.2358     -2.0587  O       1  LIG       0.0000
     2  C2         0.4354     -1.8443     -0.8920  C       1  LIG       0.0000
     3  C3        -1.3731     -0.6183     -0.5236  C       1  LIG       0.0000
     4  C4        -0.6644     -0.0590      0.5865  C       1  LIG       0.0000
     5  C5         0.0057      1.1760     -0.5345  C       1  LIG       0.0000
     6  C6         1.1125     -0.1922     -0.7850  C       1  LIG       0.0000
     7  C7         1.4314      0.3517      0.7127  C       1  LIG       0.0000
     8  O8         0.7242     -1.7824      0.4180  O       1  LIG       0.0000
     9  H9        -2.0870     -0.1648     -1.0643  H       1  LIG       0.0000
    10  H10       -1.6552     -1.6542      0.3266  H       1  LIG       0.0000
    11  H11       -1.2345      1.2415      1.0253  H       1  LIG       0.0000
    12  H12        0.1164      2.0526      0.6705  H       1  LIG       0.0000
    13  H13       -0.5919      1.9009     -0.2828  H       1  LIG       0.0000
    14  H14        2.0433      1.0383      0.0542  H       1  LIG       0.0000
    15  H15        1.2632      0.6021      0.9118  H       1  LIG       0.0000
    16  H16        0.9505      0.1879      1.4354  H       1  LIG       0.0000
@<TRIPOS>BOND
    1     5    13  1
    2     5    12  1
    3     5     6  1
    4     4     5  1
    5     6    14  1
    6     4    11  1
    7     6     8  1
    8     6     7  1
    9     3     4  1
   10     4     7  1
   11     3     9  1
   12     7    15  1
   13     2     8  1
   14     2     3  1
   15     3    10  1
   16     7    16  1
   17     1     2  2
