@<TRIPOS>MOLECULE
generated_molecule
17 18 0 0 0
SMALL
NO_CHARGES

@<TRIPOS>ATOM
     1  O1         0.7739      2.6343      0.0638  O       1  LIG       0.0000
     2  C2         0.5693      1.7637     -0.9419  C       1  LIG       0.0000
     3  C3        -0.5659      0.5108      0.1987  C       1  LIG       0.0000
     4  C4        -0.4027     -1.0869     -0.4015  C       1  LIG       0.0000
     5  N5        -0.4099     -0.7268      1.2591  N       1  LIG       0.0000
     6  C6         0.5054      0.3228      0.4302  C       1  LIG       0.0000
     7  C7        -0.4897     -1.1620      0.3308  C       1  LIG       0.0000
     8  O8        -0.1666     -0.5069     -0.9608  O       1  LIG       0.0000
     9  H9        -0.6430      2.8942     -0.1829  H       1  LIG       0.0000
    10  H10        1.4349      0.6862     -1.2482  H       1  LIG       0.0000
    11  H11        1.0513      1.1388      0.8004  H       1  LIG       0.0000
    12  H12       -0.2280     -1.5205     -0.6131  H       1  LIG       0.0000
    13  H13       -1.6178     -1.9928     -0.5395  H       1  LIG       0.0000
    14  H14       -0.0684      0.0981      1.2201  H       1  LIG       0.0000
    15  H15        2.1329      0.1300     -0.2037  H       1  LIG       0.0000
    16  H16       -1.2463     -0.8558      1.3831  H       1  LIG       0.0000
    17  H17       -0.6294     -2.3271     -0.5946  H       1  LIG       0.0000
@<TRIPOS>BOND
    1     4    12  1
    2     5    14  1
    3     4     5  1
    4     3     5  1
    5     4    13  1
    6     3     4  1
    7     3    11  1
    8     2     3  1
    9     2    10  1
   10     1     2  1
   11     2     6  1
   12     1     9  1
   13     6     8  1
   14     6    15  1
   15     6     7  1
   16     7     8  1
   17     7    17  1
   18     7    16  1
