@<TRIPOS>MOLECULE
generated_molecule
19 20 0 0 0
SMALL
NO_CHARGES

@<TRIPOS>ATOM
     1  C1        -0.3521      1.9772      0.5314  C       1  LIG       0.0000
     2  O2        -0.1973      0.9014      1.2076  O       1  LIG       0.0000
     3  C3         0.1857     -0.2920      0.1367  C       1  LIG       0.0000
     4  C4         0.7199      0.5684      0.6138  C       1  LIG       0.0000
     5  C5         0.1501     -1.0977      0.4361  C       1  LIG       0.0000
     6  N6        -0.9251     -1.1826     -0.8957  N       1  LIG       0.0000
     7  C7        -0.3585     -1.4759     -1.5911  C       1  LIG       0.0000
     8  C8         0.7233     -0.7498     -0.7964  C       1  LIG       0.0000
     9  H9         0.6511      1.7794      0.5233  H       1  LIG       0.0000
    10  H10       -0.8559      1.7891      0.8582  H       1  LIG       0.0000
    11  H11        0.2751      3.0342      0.4764  H       1  LIG       0.0000
    12  H12        0.5722      0.9216     -0.6490  H       1  LIG       0.0000
    13  H13        1.0658     -0.1023      1.8503  H       1  LIG       0.0000
    14  H14        1.0450      0.1171     -1.0303  H       1  LIG       0.0000
    15  H15       -0.7628     -0.5874     -0.5117  H       1  LIG       0.0000
    16  H16       -0.3787     -0.8926      0.5924  H       1  LIG       0.0000
    17  H17       -1.7556     -1.3639     -0.7624  H       1  LIG       0.0000
    18  H18       -0.5568     -1.2854     -1.2792  H       1  LIG       0.0000
    19  H19        0.7546     -2.0587      0.2896  H       1  LIG       0.0000
@<TRIPOS>BOND
    1     5    15  1
    2     8    19  1
    3     3    12  1
    4     5     6  1
    5     6     8  1
    6     6     7  1
    7     5    16  1
    8     4     5  1
    9     3     8  1
   10     7     8  1
   11     4    13  1
   12     3     4  1
   13     2     3  1
   14     4    14  1
   15     1    10  1
   16     7    17  1
   17     7    18  1
   18     1     2  1
   19     1     9  1
   20     1    11  1
