@<TRIPOS>MOLECULE
generated_molecule
17 17 0 0 0
SMALL
NO_CHARGES

@<TRIPOS>ATOM
     1  N1         1.6287     -1.3085      1.2415  N       1  LIG       0.0000
     2  C2         1.2847     -0.5116      2.0271  C       1  LIG       0.0000
     3  C3        -0.6251     -0.1265      1.4916  C       1  LIG       0.0000
     4  O4        -0.5148      0.1405     -0.0157  O       1  LIG       0.0000
     5  C5        -1.0257      0.7058     -0.7772  C       1  LIG       0.0000
     6  C6        -1.3459     -0.6651     -1.2567  C       1  LIG       0.0000
     7  O7        -0.4719     -0.9758      0.1191  O       1  LIG       0.0000
     8  C8        -1.0139      1.5828      0.8333  C       1  LIG       0.0000
     9  N9        -0.6974      2.1725     -0.2815  N       1  LIG       0.0000
    10  H10        1.7579     -0.8100      0.3001  H       1  LIG       0.0000
    11  H11        2.3126     -0.1725      0.1542  H       1  LIG       0.0000
    12  H12        1.8476      0.3410      0.6827  H       1  LIG       0.0000
    13  H13        1.4277     -1.7956      1.1707  H       1  LIG       0.0000
    14  H14       -0.4255      1.7493     -1.3977  H       1  LIG       0.0000
    15  H15       -2.0127      1.3652     -0.9596  H       1  LIG       0.0000
    16  H16       -1.2455     -1.3334     -1.1227  H       1  LIG       0.0000
    17  H17       -0.8810     -0.3581     -2.2092  H       1  LIG       0.0000
@<TRIPOS>BOND
    1     2    13  1
    2     1    10  1
    3     1     2  1
    4     1    11  1
    5     2    12  1
    6     2     3  1
    7     3     8  1
    8     3     7  1
    9     3     4  1
   10     8     9  3
   11     6     7  1
   12     4     5  1
   13     6    17  1
   14     6    16  1
   15     5     6  1
   16     5    14  1
   17     5    15  1
