@<TRIPOS>MOLECULE
generated_molecule
14 14 0 0 0
SMALL
NO_CHARGES

@<TRIPOS>ATOM
     1  C1         0.1590      1.9395     -0.7510  C       1  LIG       0.0000
     2  O2         0.7718      0.6737     -0.7762  O       1  LIG       0.0000
     3  C3        -0.0603      0.0475      0.5981  C       1  LIG       0.0000
     4  C4         0.0613     -0.9959      0.1500  C       1  LIG       0.0000
     5  O5         1.7442     -0.5380      0.5488  O       1  LIG       0.0000
     6  N6        -0.3141     -2.1575      1.0139  N       1  LIG       0.0000
     7  N7        -1.7150     -1.3668      0.3652  N       1  LIG       0.0000
     8  C8        -1.2987     -0.0367     -0.0566  C       1  LIG       0.0000
     9  H9         0.2441      1.6802      0.2898  H       1  LIG       0.0000
    10  H10        0.7678      3.1032     -1.4241  H       1  LIG       0.0000
    11  H11        0.3626      2.0137      0.7682  H       1  LIG       0.0000
    12  H12        1.1844     -1.8914      0.2645  H       1  LIG       0.0000
    13  H13        0.4530     -2.3358     -0.0071  H       1  LIG       0.0000
    14  H14       -2.3600     -0.1356     -0.9836  H       1  LIG       0.0000
@<TRIPOS>BOND
    1     1    10  1
    2     5    12  1
    3     1     2  1
    4     2     3  1
    5     1     9  1
    6     1    11  1
    7     4     5  1
    8     3     4  ar
    9     3     8  ar
   10     4     6  ar
   11     8    14  1
   12     7     8  ar
   13     6    13  1
   14     6     7  ar
