@<TRIPOS>MOLECULE
generated_molecule
17 18 0 0 0
SMALL
NO_CHARGES

@<TRIPOS>ATOM
     1  C1         0.7012     -1.6870      1.2108  C       1  LIG       0.0000
     2  C2         0.1598     -0.5986      2.0100  C       1  LIG       0.0000
     3  C3        -1.1044     -1.2285      0.5400  C       1  LIG       0.0000
     4  O4        -0.8964     -0.4138      0.3974  O       1  LIG       0.0000
     5  C5        -0.0491      0.8367      1.0448  C       1  LIG       0.0000
     6  C6         0.4900      1.0743      0.2102  C       1  LIG       0.0000
     7  C7         0.6518      1.4109     -1.3833  C       1  LIG       0.0000
     8  C8        -0.3780      0.9725     -0.8935  C       1  LIG       0.0000
     9  C9        -0.8972     -0.5812     -1.1037  C       1  LIG       0.0000
    10  H10        1.6197     -1.7986     -0.0066  H       1  LIG       0.0000
    11  H11       -1.9297     -1.0869     -0.3277  H       1  LIG       0.0000
    12  H12        0.5527      0.9485      0.6554  H       1  LIG       0.0000
    13  H13        0.3105     -0.3013      0.1669  H       1  LIG       0.0000
    14  H14        0.1779      2.4684      0.7800  H       1  LIG       0.0000
    15  H15        2.0968      1.1537     -1.2252  H       1  LIG       0.0000
    16  H16        0.1642      0.4657     -1.7173  H       1  LIG       0.0000
    17  H17       -1.6697     -1.6347     -0.3581  H       1  LIG       0.0000
@<TRIPOS>BOND
    1     3    11  1
    2     9    17  1
    3     3     9  1
    4     2     3  1
    5     3     4  1
    6     8     9  2
    7     1     2  3
    8     1    10  1
    9     5     8  1
   10     7     8  1
   11     4     5  1
   12     5    12  1
   13     5     6  1
   14     7    15  1
   15     7    16  1
   16     6     7  1
   17     6    14  1
   18     6    13  1
