@<TRIPOS>MOLECULE
generated_molecule
17 18 0 0 0
SMALL
NO_CHARGES

@<TRIPOS>ATOM
     1  C1        -0.8796      0.9209      0.0378  C       1  LIG       0.0000
     2  N2         0.4548     -0.2331     -0.9128  N       1  LIG       0.0000
     3  C3        -0.3784     -1.2707     -1.5214  C       1  LIG       0.0000
     4  C4         0.7855     -1.4133      0.0427  C       1  LIG       0.0000
     5  O5         1.6750     -0.3388      0.1977  O       1  LIG       0.0000
     6  C6         0.5796      0.5958      1.0688  C       1  LIG       0.0000
     7  C7         0.1059      2.0572      0.8377  C       1  LIG       0.0000
     8  N8        -0.0694      2.2250     -0.7502  N       1  LIG       0.0000
     9  C9         0.2227     -0.4909      0.6614  C       1  LIG       0.0000
    10  H10       -1.1666      0.2286      1.2094  H       1  LIG       0.0000
    11  H11       -0.1373      1.0021     -0.5148  H       1  LIG       0.0000
    12  H12       -1.8599      0.6726      1.1704  H       1  LIG       0.0000
    13  H13       -0.0521      0.1326     -2.2345  H       1  LIG       0.0000
    14  H14        0.4089     -1.2022     -2.7673  H       1  LIG       0.0000
    15  H15        0.6675     -2.4489     -0.2878  H       1  LIG       0.0000
    16  H16       -0.1582     -0.0705      2.0054  H       1  LIG       0.0000
    17  H17       -0.1984     -0.3663      1.7576  H       1  LIG       0.0000
@<TRIPOS>BOND
    1     7     8  3
    2     1    11  1
    3     3    14  1
    4     6     7  1
    5     1     2  1
    6     1    10  1
    7     1    12  1
    8     2     3  1
    9     2     9  1
   10     3    13  1
   11     3     4  1
   12     5     6  1
   13     4     5  1
   14     6     9  1
   15     6    16  1
   16     4     9  1
   17     4    15  1
   18     9    17  1
