@<TRIPOS>MOLECULE
generated_molecule
15 16 0 0 0
SMALL
NO_CHARGES

@<TRIPOS>ATOM
     1  O1        -0.7206     -2.3227      0.4676  O       1  LIG       0.0000
     2  C2        -0.2544     -1.2047     -0.0898  C       1  LIG       0.0000
     3  C3        -1.1754      0.0741      0.6995  C       1  LIG       0.0000
     4  C4        -0.6991      0.4376     -0.8439  C       1  LIG       0.0000
     5  C5         0.4398      0.7944      0.4780  C       1  LIG       0.0000
     6  C6         0.6876     -0.6362      1.2176  C       1  LIG       0.0000
     7  C7         1.9844     -0.0554      1.2322  C       1  LIG       0.0000
     8  N8         2.5205      0.3103     -0.1162  N       1  LIG       0.0000
     9  N9         1.5110      0.1490     -0.1008  N       1  LIG       0.0000
    10  H10       -1.4446      1.0298     -0.5558  H       1  LIG       0.0000
    11  H11       -2.2672     -0.8635      0.1797  H       1  LIG       0.0000
    12  H12       -1.8833      0.8934      0.0298  H       1  LIG       0.0000
    13  H13       -1.8694      0.2990     -1.2827  H       1  LIG       0.0000
    14  H14        1.2694      0.2992     -0.1094  H       1  LIG       0.0000
    15  H15        1.9014      0.7957     -1.2059  H       1  LIG       0.0000
@<TRIPOS>BOND
    1     4    12  1
    2     3    10  1
    3     7    14  1
    4     7     8  ar
    5     8     9  ar
    6     6     7  ar
    7     9    15  1
    8     5     9  ar
    9     5     6  ar
   10     2     6  1
   11     1     2  2
   12     4     5  1
   13     2     3  1
   14     3     4  1
   15     4    13  1
   16     3    11  1
