@<TRIPOS>MOLECULE
generated_molecule
18 18 0 0 0
SMALL
NO_CHARGES

@<TRIPOS>ATOM
     1  F1         0.4131     -1.1264     -2.2222  F       1  LIG       0.0000
     2  C2         1.0068     -1.2331     -0.5901  C       1  LIG       0.0000
     3  F3         1.9005     -0.8947     -1.7357  F       1  LIG       0.0000
     4  F4         2.4241      0.0954     -0.6103  F       1  LIG       0.0000
     5  C5         0.2920     -0.9367     -0.1143  C       1  LIG       0.0000
     6  C6         0.1002      0.6389      0.0917  C       1  LIG       0.0000
     7  C7        -1.6117      1.0003      1.0040  C       1  LIG       0.0000
     8  C8        -1.7753     -0.1809      1.6504  C       1  LIG       0.0000
     9  C9        -0.2745      0.5367      0.2592  C       1  LIG       0.0000
    10  H10        0.6234      0.3022     -0.7565  H       1  LIG       0.0000
    11  H11       -0.3910      0.7001     -1.0515  H       1  LIG       0.0000
    12  H12        0.3272     -0.8825     -0.8374  H       1  LIG       0.0000
    13  H13       -0.7938      1.9350      1.7132  H       1  LIG       0.0000
    14  H14       -0.8302      0.5589      0.2183  H       1  LIG       0.0000
    15  H15       -1.6395      1.1881      0.8759  H       1  LIG       0.0000
    16  H16       -1.0661     -1.2299      0.8240  H       1  LIG       0.0000
    17  H17        0.5440      0.2088      1.3410  H       1  LIG       0.0000
    18  H18        0.7505     -0.6801     -0.0595  H       1  LIG       0.0000
@<TRIPOS>BOND
    1     2     4  1
    2     2     3  1
    3     1     2  1
    4     2     5  1
    5     6    12  1
    6     5    10  1
    7     6    11  1
    8     5     6  1
    9     5     9  1
   10     6     7  1
   11     9    17  1
   12     9    18  1
   13     8     9  1
   14     7    14  1
   15     7    13  1
   16     7     8  1
   17     8    16  1
   18     8    15  1
