@<TRIPOS>MOLECULE
generated_molecule
16 16 0 0 0
SMALL
NO_CHARGES

@<TRIPOS>ATOM
     1  C1        -1.1915      1.6909     -0.4669  C       1  LIG       0.0000
     2  C2        -0.4552      0.8662     -0.2614  C       1  LIG       0.0000
     3  C3         0.7789     -0.0202     -0.4531  C       1  LIG       0.0000
     4  N4        -0.2034      0.2056      0.9993  N       1  LIG       0.0000
     5  C5         0.1258     -1.3111      0.3627  C       1  LIG       0.0000
     6  O6         1.2931     -2.2933      0.0438  O       1  LIG       0.0000
     7  N7        -0.1133     -2.3384      0.0841  N       1  LIG       0.0000
     8  N8         0.4095     -1.4110     -0.4381  N       1  LIG       0.0000
     9  C9        -1.5518      0.0723     -0.7910  C       1  LIG       0.0000
    10  H10       -0.3025      1.8130      0.4011  H       1  LIG       0.0000
    11  H11       -0.3941      2.2511      0.2608  H       1  LIG       0.0000
    12  H12       -1.0641      2.4337     -0.7564  H       1  LIG       0.0000
    13  H13        1.1442      0.7009      1.3960  H       1  LIG       0.0000
    14  H14        0.8715      1.0497      1.1721  H       1  LIG       0.0000
    15  H15        1.2430     -2.7835     -0.3708  H       1  LIG       0.0000
    16  H16       -0.5901     -0.9258     -1.1823  H       1  LIG       0.0000
@<TRIPOS>BOND
    1     1    11  1
    2     4    13  1
    3     9    16  1
    4     8     9  ar
    5     7     8  ar
    6     4    14  1
    7     2     9  ar
    8     7    15  1
    9     5     7  ar
   10     1     2  1
   11     2     3  ar
   12     1    10  1
   13     1    12  1
   14     5     6  2
   15     3     5  ar
   16     3     4  1
