@<TRIPOS>MOLECULE
generated_molecule
22 23 0 0 0
SMALL
NO_CHARGES

@<TRIPOS>ATOM
     1  C1        -0.5411      1.9784     -0.2656  C       1  LIG       0.0000
     2  C2        -0.5944      0.5877     -0.5436  C       1  LIG       0.0000
     3  C3        -0.5106     -0.1569     -0.9359  C       1  LIG       0.0000
     4  O4         0.8131      0.4401     -1.4812  O       1  LIG       0.0000
     5  C5         1.0573     -1.0914      0.1762  C       1  LIG       0.0000
     6  C6         0.6319     -0.8785      0.3525  C       1  LIG       0.0000
     7  C7        -0.4570     -2.1176      1.4481  C       1  LIG       0.0000
     8  C8         0.2497      0.4018      0.2452  C       1  LIG       0.0000
     9  N9        -0.0101     -0.0191      1.6870  N       1  LIG       0.0000
    10  H10       -2.0362      1.8174      0.1032  H       1  LIG       0.0000
    11  H11       -0.8483      1.3220     -0.6353  H       1  LIG       0.0000
    12  H12       -1.6712      1.9431      0.0823  H       1  LIG       0.0000
    13  H13       -1.9943      0.2365     -0.0734  H       1  LIG       0.0000
    14  H14        0.6255     -0.6073     -1.2525  H       1  LIG       0.0000
    15  H15        0.8506      1.1082     -2.3569  H       1  LIG       0.0000
    16  H16        1.1756      0.4440      0.2006  H       1  LIG       0.0000
    17  H17        0.4969     -1.3147     -1.3587  H       1  LIG       0.0000
    18  H18       -0.3571     -2.0166      0.9329  H       1  LIG       0.0000
    19  H19        0.2427     -1.4237      1.5532  H       1  LIG       0.0000
    20  H20        0.7578     -2.9385      1.4027  H       1  LIG       0.0000
    21  H21        0.4065      1.7033      0.8150  H       1  LIG       0.0000
    22  H22        1.7126      0.5818     -0.0958  H       1  LIG       0.0000
@<TRIPOS>BOND
    1     4    15  1
    2     3    14  1
    3     3     4  1
    4     3     5  1
    5     2     3  1
    6     5    17  1
    7     5    16  1
    8     1    11  1
    9     5     6  1
   10     1    10  1
   11     2    13  1
   12     1     2  1
   13     2     9  1
   14     1    12  1
   15     8    22  1
   16     6     8  1
   17     6     9  1
   18     6     7  1
   19     8     9  1
   20     8    21  1
   21     7    18  1
   22     7    20  1
   23     7    19  1
