@<TRIPOS>MOLECULE
generated_molecule
16 16 0 0 0
SMALL
NO_CHARGES

@<TRIPOS>ATOM
     1  N1         0.7115      0.8187      0.7866  N       1  LIG       0.0000
     2  C2         0.5355      1.7038      0.3443  C       1  LIG       0.0000
     3  O3        -0.3894      0.8033      0.5654  O       1  LIG       0.0000
     4  C4        -0.5073      0.8625     -0.6036  C       1  LIG       0.0000
     5  C5        -0.6960     -1.0905     -1.6673  C       1  LIG       0.0000
     6  O6        -1.4883     -1.7628     -0.1257  O       1  LIG       0.0000
     7  C7        -0.2683     -0.1377     -0.0428  C       1  LIG       0.0000
     8  C8        -0.5723     -1.9387     -0.0862  C       1  LIG       0.0000
     9  O9        -0.4350     -0.6005     -0.9624  O       1  LIG       0.0000
    10  H10        1.8804     -0.3166      0.7455  H       1  LIG       0.0000
    11  H11        1.0054      2.7196      1.1079  H       1  LIG       0.0000
    12  H12       -0.1491      1.6428     -0.8917  H       1  LIG       0.0000
    13  H13       -0.2870      0.1158      0.5208  H       1  LIG       0.0000
    14  H14        0.2611     -0.0507     -1.4632  H       1  LIG       0.0000
    15  H15        1.4524     -1.0876      0.4736  H       1  LIG       0.0000
    16  H16       -1.0535     -1.6813      1.2989  H       1  LIG       0.0000
@<TRIPOS>BOND
    1     4    13  1
    2     4    12  1
    3     4     5  1
    4     3     4  1
    5     5     6  2
    6     5     7  1
    7     2     3  1
    8     2    11  1
    9     1     2  1
   10     7    14  1
   11     7     9  1
   12     7     8  1
   13     8     9  1
   14     1    10  1
   15     8    16  1
   16     8    15  1
