@<TRIPOS>MOLECULE
generated_molecule
18 19 0 0 0
SMALL
NO_CHARGES

@<TRIPOS>ATOM
     1  C1        -1.0992      2.0301      0.3109  C       1  LIG       0.0000
     2  C2        -0.5746      0.6878     -0.3091  C       1  LIG       0.0000
     3  N3        -0.6993      0.2067     -2.0240  N       1  LIG       0.0000
     4  C4        -0.3739     -0.4164     -0.9819  C       1  LIG       0.0000
     5  N5         1.2080     -0.8399     -1.2941  N       1  LIG       0.0000
     6  O6         0.8283     -0.7457      0.6347  O       1  LIG       0.0000
     7  C7         0.8428      0.3317      0.4841  C       1  LIG       0.0000
     8  C8        -0.9716     -0.2557      0.9104  C       1  LIG       0.0000
     9  N9        -0.0422     -1.7733      0.6561  N       1  LIG       0.0000
    10  H10       -0.4769      2.6821     -0.5417  H       1  LIG       0.0000
    11  H11       -0.5537      2.2787      0.9785  H       1  LIG       0.0000
    12  H12       -2.1790      1.7692     -0.3890  H       1  LIG       0.0000
    13  H13        2.2008     -0.2548     -0.2623  H       1  LIG       0.0000
    14  H14        0.1416     -0.2683     -1.8849  H       1  LIG       0.0000
    15  H15        0.2880     -0.4794      1.4393  H       1  LIG       0.0000
    16  H16        0.2004     -1.0880      0.5351  H       1  LIG       0.0000
    17  H17        0.7958     -1.2052      1.7095  H       1  LIG       0.0000
    18  H18        0.4648     -2.6597      0.0285  H       1  LIG       0.0000
@<TRIPOS>BOND
    1     9    18  1
    2     9    17  1
    3     8     9  1
    4     1    11  1
    5     8    16  1
    6     2     8  1
    7     7     8  1
    8     2     3  1
    9     3     4  1
   10     1     2  1
   11     1    10  1
   12     1    12  1
   13     2     7  1
   14     5    13  1
   15     4     5  1
   16     4     6  1
   17     5    14  1
   18     6     7  1
   19     7    15  1
