@<TRIPOS>MOLECULE
generated_molecule
19 21 0 0 0
SMALL
NO_CHARGES

@<TRIPOS>ATOM
     1  C1        -0.9544      2.0111     -0.0178  C       1  LIG       0.0000
     2  C2        -0.8462      0.5282     -0.5593  C       1  LIG       0.0000
     3  C3         0.2549      0.9726     -0.3113  C       1  LIG       0.0000
     4  C4         1.1191     -1.4778     -0.2063  C       1  LIG       0.0000
     5  C5         0.4831     -0.2829      0.6198  C       1  LIG       0.0000
     6  O6         2.3181     -1.4464      0.4108  O       1  LIG       0.0000
     7  C7        -0.6304     -1.1812      0.0141  C       1  LIG       0.0000
     8  O8         0.2030     -0.3264     -0.0754  O       1  LIG       0.0000
     9  C9        -1.4583     -0.8904      0.7638  C       1  LIG       0.0000
    10  H10       -0.1263      2.6723      0.3214  H       1  LIG       0.0000
    11  H11       -1.5309      3.2479      0.3337  H       1  LIG       0.0000
    12  H12       -1.2713      1.1192      1.1499  H       1  LIG       0.0000
    13  H13        0.9823      1.0703     -1.4013  H       1  LIG       0.0000
    14  H14        0.5095      0.3066     -1.6815  H       1  LIG       0.0000
    15  H15        0.2784     -1.2467     -0.9150  H       1  LIG       0.0000
    16  H16       -0.0086     -2.3677      0.3858  H       1  LIG       0.0000
    17  H17        1.7036     -1.4089     -0.4489  H       1  LIG       0.0000
    18  H18        0.5146     -1.8913      0.7896  H       1  LIG       0.0000
    19  H19       -1.5401      0.5916      0.8278  H       1  LIG       0.0000
@<TRIPOS>BOND
    1     4    15  1
    2     3    13  1
    3     3     4  1
    4     3    14  1
    5     2     3  1
    6     4    16  1
    7     4     5  1
    8     1    11  1
    9     5     6  1
   10     6    17  1
   11     5     9  1
   12     5     7  1
   13     9    19  1
   14     2     9  1
   15     7     9  1
   16     1     2  1
   17     2     8  1
   18     1    10  1
   19     1    12  1
   20     7     8  1
   21     7    18  1
