@<TRIPOS>MOLECULE
generated_molecule
22 22 0 0 0
SMALL
NO_CHARGES

@<TRIPOS>ATOM
     1  C1        -1.1265      1.6984      0.5641  C       1  LIG       0.0000
     2  N2         0.4400      0.6968      0.0027  N       1  LIG       0.0000
     3  C3        -0.4331      0.5233     -1.0026  C       1  LIG       0.0000
     4  C4        -0.4426     -0.7681     -1.1833  C       1  LIG       0.0000
     5  C5         0.7548     -2.1307     -1.0198  C       1  LIG       0.0000
     6  C6         0.8076     -1.7951      0.2124  C       1  LIG       0.0000
     7  C7         0.2046     -0.5886      1.7586  C       1  LIG       0.0000
     8  C8         0.1443      0.8447      1.5763  C       1  LIG       0.0000
     9  O9         1.6007      1.0629      0.4892  O       1  LIG       0.0000
    10  H10       -0.6565      2.8848      0.1398  H       1  LIG       0.0000
    11  H11        0.2367      1.9065      0.0451  H       1  LIG       0.0000
    12  H12        0.3307      2.5456      0.7457  H       1  LIG       0.0000
    13  H13        0.1404      0.3851     -1.9940  H       1  LIG       0.0000
    14  H14        0.6676      1.0273      0.2926  H       1  LIG       0.0000
    15  H15       -0.2334     -1.0622     -2.0709  H       1  LIG       0.0000
    16  H16       -0.1213      0.8543     -1.4384  H       1  LIG       0.0000
    17  H17       -0.1923     -1.1898     -1.6407  H       1  LIG       0.0000
    18  H18       -0.8790     -1.6479      0.0480  H       1  LIG       0.0000
    19  H19       -0.4211     -2.2873      0.4885  H       1  LIG       0.0000
    20  H20        0.5695     -1.8042      1.6124  H       1  LIG       0.0000
    21  H21       -0.5046     -0.5341      1.5153  H       1  LIG       0.0000
    22  H22       -0.8864     -0.6217      0.8590  H       1  LIG       0.0000
@<TRIPOS>BOND
    1     5    18  1
    2     4    16  1
    3     6    20  1
    4     4     5  1
    5     5     6  1
    6     5    17  1
    7     4    15  1
    8     6    19  1
    9     3     4  1
   10     6     7  1
   11     1    11  1
   12     2     3  1
   13     3    14  1
   14     3    13  1
   15     7     8  1
   16     7    22  1
   17     7    21  1
   18     1     2  1
   19     2     8  1
   20     1    10  1
   21     1    12  1
   22     8     9  2
