@<TRIPOS>MOLECULE
generated_molecule
19 19 0 0 0
SMALL
NO_CHARGES

@<TRIPOS>ATOM
     1  C1        -0.7143      1.4985     -0.0778  C       1  LIG       0.0000
     2  C2         0.3862      0.1434     -0.1211  C       1  LIG       0.0000
     3  C3        -1.0167     -0.6510     -0.5315  C       1  LIG       0.0000
     4  C4        -1.4391     -0.3513      1.6405  C       1  LIG       0.0000
     5  O5        -2.0128     -1.6480      0.8691  O       1  LIG       0.0000
     6  O6         0.8718      0.1771     -1.4696  O       1  LIG       0.0000
     7  C7         1.2729     -1.1519     -1.7381  C       1  LIG       0.0000
     8  C8         1.2351     -0.0376     -0.3367  C       1  LIG       0.0000
     9  O9         1.1885      0.8729      0.0874  O       1  LIG       0.0000
    10  H10        0.0109      2.1372      0.1658  H       1  LIG       0.0000
    11  H11        0.0411      1.7991      1.1441  H       1  LIG       0.0000
    12  H12       -0.2786      1.0195      0.9105  H       1  LIG       0.0000
    13  H13       -0.8525      0.0141     -0.8206  H       1  LIG       0.0000
    14  H14       -2.0030     -0.5773      0.3507  H       1  LIG       0.0000
    15  H15       -1.5649      0.6255      0.1773  H       1  LIG       0.0000
    16  H16        1.4459     -1.7951     -0.2604  H       1  LIG       0.0000
    17  H17        1.8112     -2.1409     -0.8231  H       1  LIG       0.0000
    18  H18        0.9839     -1.5252     -0.3562  H       1  LIG       0.0000
    19  H19        0.6347      1.5911      1.1898  H       1  LIG       0.0000
@<TRIPOS>BOND
    1     4    15  1
    2     4     5  2
    3     3     4  1
    4     2     6  1
    5     6     7  1
    6     1    11  1
    7     3    13  1
    8     2     3  1
    9     3    14  1
   10     7    16  1
   11     1     2  1
   12     2     8  1
   13     1    10  1
   14     1    12  1
   15     7    17  1
   16     7     8  1
   17     8    18  1
   18     8     9  1
   19     9    19  1
