@<TRIPOS>MOLECULE
generated_molecule
18 19 0 0 0
SMALL
NO_CHARGES

@<TRIPOS>ATOM
     1  O1         0.3383     -2.3123      1.4885  O       1  LIG       0.0000
     2  C2         0.1130     -1.1727      1.9262  C       1  LIG       0.0000
     3  C3        -0.8200     -0.7767      1.5388  C       1  LIG       0.0000
     4  C4        -0.2358      0.1408     -0.9111  C       1  LIG       0.0000
     5  C5         0.6162      1.2934      0.2862  C       1  LIG       0.0000
     6  C6         1.4024      0.2526     -0.7633  C       1  LIG       0.0000
     7  N7         0.2769      0.3424     -1.6414  N       1  LIG       0.0000
     8  C8        -1.4542     -0.3891      0.5077  C       1  LIG       0.0000
     9  C9        -1.3033     -1.0039      0.2116  C       1  LIG       0.0000
    10  H10       -0.6361     -0.8807      0.2753  H       1  LIG       0.0000
    11  H11       -1.3468     -1.6518      0.7980  H       1  LIG       0.0000
    12  H12        0.1551      1.4113     -1.4592  H       1  LIG       0.0000
    13  H13        0.6140      1.9715     -0.8696  H       1  LIG       0.0000
    14  H14        0.5612      1.9787     -0.6582  H       1  LIG       0.0000
    15  H15        2.1755      1.1802     -0.6793  H       1  LIG       0.0000
    16  H16        0.5078      0.6496      0.3021  H       1  LIG       0.0000
    17  H17       -0.8136      0.7982     -0.2950  H       1  LIG       0.0000
    18  H18       -0.1507     -1.8313     -0.0571  H       1  LIG       0.0000
@<TRIPOS>BOND
    1     4    12  1
    2     5    13  1
    3     4     7  1
    4     4     5  1
    5     3     4  1
    6     3    10  1
    7     7     8  1
    8     6     7  1
    9     6    15  1
   10     1     2  2
   11     2     9  1
   12     2     3  1
   13     5     6  1
   14     5    14  1
   15     8     9  2
   16     9    18  1
   17     8    17  1
   18     3    11  1
   19     6    16  1
