@<TRIPOS>MOLECULE
generated_molecule
19 20 0 0 0
SMALL
NO_CHARGES

@<TRIPOS>ATOM
     1  C1         1.9776      1.8440      0.6465  C       1  LIG       0.0000
     2  N2         0.0598      1.3109      0.4603  N       1  LIG       0.0000
     3  C3         0.3752     -0.5503      1.1567  C       1  LIG       0.0000
     4  C4         0.7015     -1.9859     -0.1308  C       1  LIG       0.0000
     5  O5         1.0165     -1.2226     -2.3266  O       1  LIG       0.0000
     6  C6        -0.1832     -0.1293      0.1134  C       1  LIG       0.0000
     7  C7        -1.3344      0.5770      0.3802  C       1  LIG       0.0000
     8  C8        -1.6059     -0.5249      0.8382  C       1  LIG       0.0000
     9  N9        -0.1328      0.0985      1.5294  N       1  LIG       0.0000
    10  H10        1.0852      2.8342     -0.7622  H       1  LIG       0.0000
    11  H11        1.0716      1.6183     -0.5197  H       1  LIG       0.0000
    12  H12        1.9816      2.1381     -0.2547  H       1  LIG       0.0000
    13  H13       -0.5348     -1.5600     -0.1509  H       1  LIG       0.0000
    14  H14        1.2291     -0.7704     -1.3772  H       1  LIG       0.0000
    15  H15       -0.8191     -1.5588     -0.1287  H       1  LIG       0.0000
    16  H16       -0.3498      0.1984      0.3212  H       1  LIG       0.0000
    17  H17       -0.9988     -0.4822     -0.6745  H       1  LIG       0.0000
    18  H18       -2.3326      0.0541      0.9511  H       1  LIG       0.0000
    19  H19       -1.2066     -1.8892     -0.0715  H       1  LIG       0.0000
@<TRIPOS>BOND
    1     6    15  1
    2     4    13  1
    3     4     6  1
    4     4     5  1
    5     3     4  1
    6     6     9  1
    7     6     7  1
    8     5    14  1
    9     7    16  1
   10     3     9  1
   11     8     9  1
   12     7    17  1
   13     7     8  1
   14     2     3  1
   15     1    11  1
   16     8    18  1
   17     8    19  1
   18     1     2  1
   19     1    12  1
   20     1    10  1
