@<TRIPOS>MOLECULE
generated_molecule
15 16 0 0 0
SMALL
NO_CHARGES

@<TRIPOS>ATOM
     1  O1         0.3281      0.7070     -1.2814  O       1  LIG       0.0000
     2  C2         0.1563      0.5237     -1.3735  C       1  LIG       0.0000
     3  C3        -0.8803     -0.0706      0.1387  C       1  LIG       0.0000
     4  C4        -0.8560     -0.4313      0.2885  C       1  LIG       0.0000
     5  C5         0.5799     -0.0410      1.2578  C       1  LIG       0.0000
     6  C6         0.6561      0.7618      0.2725  C       1  LIG       0.0000
     7  O7        -0.1242     -0.6447      0.4404  O       1  LIG       0.0000
     8  H8         0.9622      2.1166     -1.1011  H       1  LIG       0.0000
     9  H9         0.9219     -0.3203     -1.1964  H       1  LIG       0.0000
    10  H10       -1.2910     -1.1316     -1.0889  H       1  LIG       0.0000
    11  H11       -1.7281      0.7155      0.7177  H       1  LIG       0.0000
    12  H12       -1.6284     -1.6504      0.6343  H       1  LIG       0.0000
    13  H13        0.0062     -0.9665      2.0508  H       1  LIG       0.0000
    14  H14        1.8507     -0.7257      0.7893  H       1  LIG       0.0000
    15  H15        1.0467      1.1576     -0.5487  H       1  LIG       0.0000
@<TRIPOS>BOND
    1     6    15  1
    2     2     9  1
    3     1     8  1
    4     1     2  1
    5     2     6  1
    6     2     3  1
    7     6     7  1
    8     5     6  1
    9     3     7  1
   10     5    14  1
   11     5    13  1
   12     4     5  1
   13     3    10  1
   14     3     4  1
   15     4    12  1
   16     4    11  1
