@<TRIPOS>MOLECULE
generated_molecule
16 16 0 0 0
SMALL
NO_CHARGES

@<TRIPOS>ATOM
     1  C1         1.7514      1.7443      1.0039  C       1  LIG       0.0000
     2  O2         0.3804      0.6232      0.6865  O       1  LIG       0.0000
     3  C3         0.4155     -0.1196      0.6211  C       1  LIG       0.0000
     4  N4         0.1325     -0.9650      0.1494  N       1  LIG       0.0000
     5  N5        -0.7370     -1.5422     -0.8747  N       1  LIG       0.0000
     6  C6        -1.7626     -1.5733     -0.5165  C       1  LIG       0.0000
     7  C7        -0.9893      0.0997     -0.1939  C       1  LIG       0.0000
     8  O8        -2.4070      0.4768     -0.5027  O       1  LIG       0.0000
     9  N9        -0.4209      1.0392      0.0137  N       1  LIG       0.0000
    10  H10        2.0789      1.2945     -0.4149  H       1  LIG       0.0000
    11  H11        2.5063      1.8978      0.1133  H       1  LIG       0.0000
    12  H12        1.1744      1.0494     -0.5051  H       1  LIG       0.0000
    13  H13       -1.0893     -2.5757      0.3854  H       1  LIG       0.0000
    14  H14       -0.4560     -0.6285      0.0398  H       1  LIG       0.0000
    15  H15       -1.0676     -1.2506      0.9939  H       1  LIG       0.0000
    16  H16        0.4904      0.4300     -0.9993  H       1  LIG       0.0000
@<TRIPOS>BOND
    1     6    13  1
    2     6    15  1
    3     6    14  1
    4     5     6  1
    5     7     8  2
    6     5     7  ar
    7     4     5  ar
    8     7     9  ar
    9     3     4  ar
   10     3     9  ar
   11     9    16  1
   12     2     3  1
   13     1    11  1
   14     1     2  1
   15     1    10  1
   16     1    12  1
