@<TRIPOS>MOLECULE
generated_molecule
13 13 0 0 0
SMALL
NO_CHARGES

@<TRIPOS>ATOM
     1  C1         1.0969      1.8231      0.4834  C       1  LIG       0.0000
     2  C2         1.4221      0.1164      0.7929  C       1  LIG       0.0000
     3  O3         0.8100     -0.3396      0.7756  O       1  LIG       0.0000
     4  C4         0.1335     -0.1707     -0.4937  C       1  LIG       0.0000
     5  C5        -0.5879     -1.2657      0.3777  C       1  LIG       0.0000
     6  O6         0.0341     -2.4042     -0.2081  O       1  LIG       0.0000
     7  N7        -1.7215     -1.5270     -0.7786  N       1  LIG       0.0000
     8  N8        -1.4698     -0.1994     -0.3683  N       1  LIG       0.0000
     9  O9        -1.2962      1.1849     -0.8489  O       1  LIG       0.0000
    10  H10        0.1658      1.8937     -0.5519  H       1  LIG       0.0000
    11  H11        1.9770      2.2664      0.9100  H       1  LIG       0.0000
    12  H12        0.6916      1.3728      0.1348  H       1  LIG       0.0000
    13  H13       -1.2557     -2.7506     -0.2251  H       1  LIG       0.0000
@<TRIPOS>BOND
    1     7     8  ar
    2     8     9  ar
    3     5     7  ar
    4     4     9  ar
    5     4     5  ar
    6     5     6  1
    7     2     4  1
    8     6    13  1
    9     1    11  1
   10     1    10  1
   11     1     2  1
   12     2     3  2
   13     1    12  1
