@<TRIPOS>MOLECULE
generated_molecule
17 17 0 0 0
SMALL
NO_CHARGES

@<TRIPOS>ATOM
     1  C1         0.9416      2.3673      0.1744  C       1  LIG       0.0000
     2  C2         0.2356      1.0558     -0.0687  C       1  LIG       0.0000
     3  O3         1.4822      0.8975      0.8874  O       1  LIG       0.0000
     4  C4         0.2556      0.6573      0.5043  C       1  LIG       0.0000
     5  C5        -1.3052      0.5583      0.1118  C       1  LIG       0.0000
     6  O6        -0.7419     -1.2129      0.3571  O       1  LIG       0.0000
     7  C7         0.2233     -1.5256      0.1359  C       1  LIG       0.0000
     8  C8        -0.5915     -0.6773     -0.0258  C       1  LIG       0.0000
     9  C9        -0.0955     -2.2428      0.1392  C       1  LIG       0.0000
    10  H10       -0.3463      2.8050      0.0751  H       1  LIG       0.0000
    11  H11        0.3679      2.1538     -1.1228  H       1  LIG       0.0000
    12  H12        0.6564      2.2686      0.4649  H       1  LIG       0.0000
    13  H13       -1.1230      0.6079     -1.1270  H       1  LIG       0.0000
    14  H14       -0.6780     -1.1354      0.0130  H       1  LIG       0.0000
    15  H15        0.7311     -2.5575     -0.1248  H       1  LIG       0.0000
    16  H16        0.3528     -2.1835      0.6454  H       1  LIG       0.0000
    17  H17       -0.3651     -1.8365     -1.0395  H       1  LIG       0.0000
@<TRIPOS>BOND
    1     1    11  1
    2     9    15  1
    3     1    10  1
    4     2     3  2
    5     1     2  1
    6     1    12  1
    7     2     4  1
    8     8     9  1
    9     9    17  1
   10     9    16  1
   11     4     8  ar
   12     4     5  ar
   13     7     8  ar
   14     5    13  1
   15     5     6  ar
   16     6     7  ar
   17     7    14  1
