@<TRIPOS>MOLECULE
generated_molecule
13 13 0 0 0
SMALL
NO_CHARGES

@<TRIPOS>ATOM
     1  N1         0.5273     -0.5409     -1.4137  N       1  LIG       0.0000
     2  C2         2.0016     -0.5407      0.1028  C       1  LIG       0.0000
     3  N3         0.4410      0.6489     -0.2445  N       1  LIG       0.0000
     4  C4        -0.7611      1.0199     -0.4920  C       1  LIG       0.0000
     5  C5        -0.7464      0.2961      0.2796  C       1  LIG       0.0000
     6  N6        -2.3865      0.0009     -0.4071  N       1  LIG       0.0000
     7  C7        -1.2355     -0.9640      0.3984  C       1  LIG       0.0000
     8  O8         0.1366      0.1585      0.2799  O       1  LIG       0.0000
     9  H9         1.6450     -0.7921     -1.2870  H       1  LIG       0.0000
    10  H10        0.6660     -1.4177     -0.0206  H       1  LIG       0.0000
    11  H11        0.0149      1.0608      1.1516  H       1  LIG       0.0000
    12  H12       -0.8547      1.6800      0.8721  H       1  LIG       0.0000
    13  H13        0.5518     -0.6096      0.7806  H       1  LIG       0.0000
@<TRIPOS>BOND
    1     5    12  1
    2     1     9  1
    3     1     2  2
    4     5     6  ar
    5     4     5  ar
    6     6     7  ar
    7     2    10  1
    8     2     3  1
    9     3     4  1
   10     4     8  ar
   11     7    13  1
   12     7     8  ar
   13     3    11  1
