@<TRIPOS>MOLECULE
generated_molecule
17 17 0 0 0
SMALL
NO_CHARGES

@<TRIPOS>ATOM
     1  C1         1.7090      1.4479      0.2538  C       1  LIG       0.0000
     2  O2         0.5492      1.3318      0.7804  O       1  LIG       0.0000
     3  C3         0.2473     -0.7625      0.7578  C       1  LIG       0.0000
     4  C4        -1.0158     -1.4057     -0.5555  C       1  LIG       0.0000
     5  C5        -0.6027     -0.8822     -1.4760  C       1  LIG       0.0000
     6  C6        -0.2117     -0.1628     -0.1844  C       1  LIG       0.0000
     7  C7         0.1122      1.4263     -1.2467  C       1  LIG       0.0000
     8  C8        -0.0166      0.0045      0.5997  C       1  LIG       0.0000
     9  O9        -1.6810     -1.0483      0.2155  O       1  LIG       0.0000
    10  H10        2.9277      0.5744      0.3849  H       1  LIG       0.0000
    11  H11        1.2990      1.8742      0.8765  H       1  LIG       0.0000
    12  H12        2.3747      2.2189      1.0567  H       1  LIG       0.0000
    13  H13       -1.1167     -1.4256      0.6319  H       1  LIG       0.0000
    14  H14       -0.9215     -1.3620      0.0683  H       1  LIG       0.0000
    15  H15        0.0013     -0.4934     -1.3423  H       1  LIG       0.0000
    16  H16       -2.0489     -1.1746     -1.3919  H       1  LIG       0.0000
    17  H17       -1.6058     -0.1610      0.5711  H       1  LIG       0.0000
@<TRIPOS>BOND
    1     8     9  2
    2     8    17  1
    3     7     8  1
    4     6     7  3
    5     3     6  1
    6     5    16  1
    7     4    13  1
    8     3     5  1
    9     3     4  1
   10     2     3  1
   11     4     5  1
   12     5    15  1
   13     4    14  1
   14     1    11  1
   15     1     2  1
   16     1    10  1
   17     1    12  1
