@<TRIPOS>MOLECULE
generated_molecule
18 20 0 0 0
SMALL
NO_CHARGES

@<TRIPOS>ATOM
     1  C1         0.8873      0.9880      0.0565  C       1  LIG       0.0000
     2  C2         1.0694      0.7403      1.1955  C       1  LIG       0.0000
     3  C3         0.7238     -1.0808      0.2057  C       1  LIG       0.0000
     4  C4         0.2467      0.6158      0.7906  C       1  LIG       0.0000
     5  C5        -1.0961      0.2904     -0.5865  C       1  LIG       0.0000
     6  C6        -0.4675     -2.2695      0.0566  C       1  LIG       0.0000
     7  O7        -0.2033     -2.3028      1.5392  O       1  LIG       0.0000
     8  C8        -0.3274      0.8946     -0.6666  C       1  LIG       0.0000
     9  H9         0.3263      1.6526     -1.0548  H       1  LIG       0.0000
    10  H10       -0.5968      1.2369     -0.1939  H       1  LIG       0.0000
    11  H11        0.1673      0.2598      0.5018  H       1  LIG       0.0000
    12  H12        0.9992      0.8257      1.5107  H       1  LIG       0.0000
    13  H13        0.2631      1.3976      0.1040  H       1  LIG       0.0000
    14  H14        0.3550      0.7224     -0.3922  H       1  LIG       0.0000
    15  H15       -1.0604     -0.5231     -0.9278  H       1  LIG       0.0000
    16  H16       -1.8425     -1.8747      0.1412  H       1  LIG       0.0000
    17  H17       -0.1678     -1.8889     -0.7287  H       1  LIG       0.0000
    18  H18        0.7238      0.3157     -1.5514  H       1  LIG       0.0000
@<TRIPOS>BOND
    1     1    10  1
    2     8    18  1
    3     2    11  1
    4     1     8  1
    5     1     2  1
    6     1     9  1
    7     3     8  1
    8     5     8  1
    9     2    12  1
   10     2     3  1
   11     4    13  1
   12     3     4  1
   13     3     7  1
   14     5    15  1
   15     4     5  1
   16     5     6  1
   17     4    14  1
   18     6     7  1
   19     6    16  1
   20     6    17  1
