@<TRIPOS>MOLECULE
generated_molecule
16 17 0 0 0
SMALL
NO_CHARGES

@<TRIPOS>ATOM
     1  C1        -0.6795      2.1413     -0.9144  C       1  LIG       0.0000
     2  C2         1.4032      1.4610     -0.6967  C       1  LIG       0.0000
     3  C3        -0.2129     -0.5577     -0.1616  C       1  LIG       0.0000
     4  C4        -0.4229     -1.4557      0.4221  C       1  LIG       0.0000
     5  O5        -0.0186     -2.7162     -0.3516  O       1  LIG       0.0000
     6  C6         0.4696      0.5990     -0.3335  C       1  LIG       0.0000
     7  N7         1.7062     -0.2342      0.1336  N       1  LIG       0.0000
     8  C8         0.8672     -0.9027      1.0878  C       1  LIG       0.0000
     9  C9        -0.3945     -1.8522      2.3494  C       1  LIG       0.0000
    10  H10       -0.7393      2.2230      0.5946  H       1  LIG       0.0000
    11  H11       -0.3168      1.8076      0.1326  H       1  LIG       0.0000
    12  H12       -1.0752      1.9289      0.2283  H       1  LIG       0.0000
    13  H13       -0.1648     -1.5372     -1.3744  H       1  LIG       0.0000
    14  H14       -0.7290      0.1303     -1.4716  H       1  LIG       0.0000
    15  H15        2.0718      0.1653     -1.1266  H       1  LIG       0.0000
    16  H16       -1.7645     -1.2004      1.4819  H       1  LIG       0.0000
@<TRIPOS>BOND
    1     3    14  1
    2     1    11  1
    3     7    15  1
    4     2     7  1
    5     6     7  1
    6     2     3  1
    7     3    13  1
    8     3     4  1
    9     1     2  1
   10     1    10  1
   11     1    12  1
   12     2     6  1
   13     4     6  1
   14     4     5  2
   15     6     8  1
   16     8     9  3
   17     9    16  1
