@<TRIPOS>MOLECULE
generated_molecule
17 18 0 0 0
SMALL
NO_CHARGES

@<TRIPOS>ATOM
     1  C1        -0.8285     -2.8823      0.7720  C       1  LIG       0.0000
     2  C2         0.0230     -0.8502      0.7175  C       1  LIG       0.0000
     3  C3        -1.4374      0.7466      0.5688  C       1  LIG       0.0000
     4  C4        -0.4623      1.2953      0.2575  C       1  LIG       0.0000
     5  O5         0.8174      0.7783     -0.5791  O       1  LIG       0.0000
     6  C6         0.2904     -0.2369     -0.1228  C       1  LIG       0.0000
     7  C7         1.1163      0.9597     -0.7645  C       1  LIG       0.0000
     8  C8        -0.3207      1.4221     -0.6658  C       1  LIG       0.0000
     9  C9        -0.9381     -0.1058     -0.5115  C       1  LIG       0.0000
    10  H10        0.3949     -2.6119      0.9679  H       1  LIG       0.0000
    11  H11       -1.1545      0.1010     -0.2984  H       1  LIG       0.0000
    12  H12        0.8471      0.9611     -0.0910  H       1  LIG       0.0000
    13  H13       -0.5970     -1.4731      0.8792  H       1  LIG       0.0000
    14  H14        0.2659     -1.6780      0.4453  H       1  LIG       0.0000
    15  H15        0.9395      1.3294     -0.0492  H       1  LIG       0.0000
    16  H16        0.8220      1.5543     -0.5909  H       1  LIG       0.0000
    17  H17        0.2220      0.6903     -0.9350  H       1  LIG       0.0000
@<TRIPOS>BOND
    1     8    16  1
    2     9    17  1
    3     3    11  1
    4     3     9  1
    5     8     9  1
    6     4     9  1
    7     2     3  1
    8     3     4  1
    9     7     8  2
   10     1     2  3
   11     1    10  1
   12     7    15  1
   13     6     7  1
   14     4    12  1
   15     4     5  1
   16     5     6  1
   17     6    13  1
   18     6    14  1
