@<TRIPOS>MOLECULE
generated_molecule
16 17 0 0 0
SMALL
NO_CHARGES

@<TRIPOS>ATOM
     1  C1        -1.7585      1.5873      0.2797  C       1  LIG       0.0000
     2  C2        -1.0021     -0.2346      0.0483  C       1  LIG       0.0000
     3  C3        -0.6786     -0.6608      1.3381  C       1  LIG       0.0000
     4  O4        -0.1508     -1.8611      1.5357  O       1  LIG       0.0000
     5  C5         0.8579     -1.3112      0.0592  C       1  LIG       0.0000
     6  N6         1.8460     -0.3990     -1.4923  N       1  LIG       0.0000
     7  C7         1.1109     -0.5303     -1.5184  C       1  LIG       0.0000
     8  C8        -0.6517     -0.8814     -0.3275  C       1  LIG       0.0000
     9  O9        -0.6432      0.4270      0.7677  O       1  LIG       0.0000
    10  H10       -0.8558      2.7430      0.6069  H       1  LIG       0.0000
    11  H11       -0.2385      2.4015     -0.3048  H       1  LIG       0.0000
    12  H12       -0.3584      2.1863     -1.0021  H       1  LIG       0.0000
    13  H13       -2.1097      0.0956      0.6454  H       1  LIG       0.0000
    14  H14        1.3322     -1.1529      1.4816  H       1  LIG       0.0000
    15  H15        2.5581     -1.5796     -1.3639  H       1  LIG       0.0000
    16  H16        0.7421     -0.8297     -0.7536  H       1  LIG       0.0000
@<TRIPOS>BOND
    1     3     4  2
    2     5    14  1
    3     3     5  1
    4     2     3  1
    5     1    11  1
    6     5     6  1
    7     5     7  1
    8     2    13  1
    9     1     2  1
   10     2     8  1
   11     1    10  1
   12     1    12  1
   13     6    15  1
   14     6     7  1
   15     7     8  1
   16     7    16  1
   17     8     9  2
