@<TRIPOS>MOLECULE
generated_molecule
16 16 0 0 0
SMALL
NO_CHARGES

@<TRIPOS>ATOM
     1  N1         1.1706      1.2334     -1.0883  N       1  LIG       0.0000
     2  H2         0.0766      0.7285     -0.4029  H       1  LIG       0.0000
     3  H3         1.3602     -0.1937     -1.1636  H       1  LIG       0.0000
     4  H4         0.3071      1.4674     -0.2262  H       1  LIG       0.0000
     5  C5         0.1463      0.6272     -0.2786  C       1  LIG       0.0000
     6  C6        -0.4699      0.5556     -1.1382  C       1  LIG       0.0000
     7  N7        -0.5382      1.2892      0.2085  N       1  LIG       0.0000
     8  C8        -1.5204     -0.1725      0.0310  C       1  LIG       0.0000
     9  C9         0.0632     -1.1569      0.6518  C       1  LIG       0.0000
    10  O10       -0.9957     -2.1019      0.6923  O       1  LIG       0.0000
    11  O11       -0.3692     -1.2261     -0.0414  O       1  LIG       0.0000
    12  H12        1.6192      0.1465      0.6948  H       1  LIG       0.0000
    13  H13        1.2046     -1.1064     -0.0619  H       1  LIG       0.0000
    14  H14       -0.2709      0.6176      0.1914  H       1  LIG       0.0000
    15  H15       -1.0359      0.4976      1.1200  H       1  LIG       0.0000
    16  H16       -0.7475     -1.2055      0.8113  H       1  LIG       0.0000
@<TRIPOS>BOND
    1     1     4  1
    2     7    15  1
    3     1     3  1
    4     5    13  1
    5     1     5  1
    6     6     7  1
    7     7     8  1
    8     5     6  1
    9     5    12  1
   10     6    14  1
   11     6     8  1
   12     2    11  1
   13     8    16  1
   14     8     9  1
   15     9    11  1
   16     9    10  2
