@<TRIPOS>MOLECULE
generated_molecule
23 23 0 0 0
SMALL
NO_CHARGES

@<TRIPOS>ATOM
     1  C1         0.3768      2.0345     -0.0945  C       1  LIG       0.0000
     2  C2        -0.1065      0.4803      1.4729  C       1  LIG       0.0000
     3  C3        -0.2284      0.0100     -0.0372  C       1  LIG       0.0000
     4  C4        -0.0118     -1.5851     -0.0241  C       1  LIG       0.0000
     5  O5        -1.0632     -2.3933     -0.4725  O       1  LIG       0.0000
     6  C6        -0.2861     -1.8447     -1.2349  C       1  LIG       0.0000
     7  C7        -0.1405     -1.8522      0.1732  C       1  LIG       0.0000
     8  C8         1.0292     -0.9571      0.7295  C       1  LIG       0.0000
     9  C9         0.7999      0.6417     -0.1401  C       1  LIG       0.0000
    10  H10       -0.7433      2.7743      0.5072  H       1  LIG       0.0000
    11  H11        0.2933      3.0387      0.0953  H       1  LIG       0.0000
    12  H12       -0.6883      2.6214     -0.1557  H       1  LIG       0.0000
    13  H13       -1.4339     -0.2190      0.7227  H       1  LIG       0.0000
    14  H14        0.6718      1.4853      1.6737  H       1  LIG       0.0000
    15  H15        0.2151     -0.5256     -0.5141  H       1  LIG       0.0000
    16  H16       -0.4649      0.7539     -0.6925  H       1  LIG       0.0000
    17  H17        1.1061     -2.5582      0.1214  H       1  LIG       0.0000
    18  H18       -0.1412     -2.8752     -0.1218  H       1  LIG       0.0000
    19  H19       -0.4995     -3.2724     -1.5974  H       1  LIG       0.0000
    20  H20       -1.2055     -0.3671     -1.4771  H       1  LIG       0.0000
    21  H21        0.1197      1.4675      0.6945  H       1  LIG       0.0000
    22  H22        0.3539      2.0890     -0.0065  H       1  LIG       0.0000
    23  H23        2.0472      1.0535      0.3781  H       1  LIG       0.0000
@<TRIPOS>BOND
    1     7    20  1
    2     9    21  1
    3     9    22  1
    4     7     8  2
    5     6     7  1
    6     8     9  1
    7     9    23  1
    8     6    19  1
    9     4     8  1
   10     6    18  1
   11     5     6  1
   12     3    15  1
   13     3    16  1
   14     3     4  1
   15     4     5  1
   16     4    17  1
   17     2     3  1
   18     1    11  1
   19     1    10  1
   20     1     2  1
   21     1    12  1
   22     2    14  1
   23     2    13  1
