@<TRIPOS>MOLECULE
generated_molecule
15 15 0 0 0
SMALL
NO_CHARGES

@<TRIPOS>ATOM
     1  C1        -1.3684      2.4330      1.0832  C       1  LIG       0.0000
     2  C2        -1.0471      0.9554      0.6202  C       1  LIG       0.0000
     3  N3        -0.0497      0.6506     -0.3652  N       1  LIG       0.0000
     4  C4         0.8631     -0.0333     -0.3387  C       1  LIG       0.0000
     5  O5         0.6739     -1.0315      0.1860  O       1  LIG       0.0000
     6  C6        -0.5436      0.0084     -0.6426  C       1  LIG       0.0000
     7  C7         1.1086     -0.8897     -1.2538  C       1  LIG       0.0000
     8  O8        -0.6511      1.2920      0.6119  O       1  LIG       0.0000
     9  H9        -1.0033      1.5755     -0.1443  H       1  LIG       0.0000
    10  H10       -0.5954      1.9695      1.3984  H       1  LIG       0.0000
    11  H11       -0.8471      1.6162      0.3997  H       1  LIG       0.0000
    12  H12        0.6879     -1.7669      1.0168  H       1  LIG       0.0000
    13  H13        0.9689     -2.2370     -0.7552  H       1  LIG       0.0000
    14  H14        1.7660     -2.0678     -1.3462  H       1  LIG       0.0000
    15  H15        0.0373     -2.4743     -0.4701  H       1  LIG       0.0000
@<TRIPOS>BOND
    1     5    12  1
    2     4     5  1
    3     3     4  ar
    4     2     3  ar
    5     1    10  1
    6     4     6  ar
    7     1     2  1
    8     2     8  ar
    9     1     9  1
   10     1    11  1
   11     6     8  ar
   12     6     7  1
   13     7    15  1
   14     7    13  1
   15     7    14  1
