@<TRIPOS>MOLECULE
generated_molecule
18 20 0 0 0
SMALL
NO_CHARGES

@<TRIPOS>ATOM
     1  C1         0.5456      2.2267      0.5862  C       1  LIG       0.0000
     2  O2         0.5571      1.0095      1.6655  O       1  LIG       0.0000
     3  C3        -0.8760      0.5719      0.2713  C       1  LIG       0.0000
     4  C4         0.4641      0.3671     -0.5474  C       1  LIG       0.0000
     5  N5         1.3810     -1.3566      0.3520  N       1  LIG       0.0000
     6  C6        -0.7257     -1.6813     -0.1001  C       1  LIG       0.0000
     7  C7         0.5399     -0.4518     -0.4833  C       1  LIG       0.0000
     8  C8        -0.3972     -0.6104     -1.5215  C       1  LIG       0.0000
     9  C9         0.3340     -1.0808      1.4743  C       1  LIG       0.0000
    10  H10       -0.4498      1.3358     -0.0402  H       1  LIG       0.0000
    11  H11       -0.8126      1.9312      0.4290  H       1  LIG       0.0000
    12  H12        0.3003      1.6121     -0.6928  H       1  LIG       0.0000
    13  H13        0.6026      0.3583     -0.5369  H       1  LIG       0.0000
    14  H14        1.3404      0.5737      0.3518  H       1  LIG       0.0000
    15  H15       -0.6432     -3.0447      0.5585  H       1  LIG       0.0000
    16  H16       -0.7978     -0.7254     -1.1468  H       1  LIG       0.0000
    17  H17       -0.6857      0.9130     -1.4276  H       1  LIG       0.0000
    18  H18       -0.6770     -1.9483      0.8082  H       1  LIG       0.0000
@<TRIPOS>BOND
    1     7    16  1
    2     8    17  1
    3     7     8  2
    4     6     7  1
    5     3     8  1
    6     1    11  1
    7     6    15  1
    8     6     9  1
    9     5     6  1
   10     2     3  1
   11     1     2  1
   12     3     9  1
   13     3     4  1
   14     9    18  1
   15     5     9  1
   16     1    10  1
   17     1    12  1
   18     4     5  1
   19     4    14  1
   20     4    13  1
