@<TRIPOS>MOLECULE
generated_molecule
19 21 0 0 0
SMALL
NO_CHARGES

@<TRIPOS>ATOM
     1  C1        -1.4504      1.3776     -0.8145  C       1  LIG       0.0000
     2  C2        -1.2854      0.7120      0.4739  C       1  LIG       0.0000
     3  O3        -0.4667      0.1642     -0.0823  O       1  LIG       0.0000
     4  C4        -0.2243     -1.0726     -0.7251  C       1  LIG       0.0000
     5  C5         1.5181     -0.9961     -0.1214  C       1  LIG       0.0000
     6  C6         0.2997      0.1354      0.7958  C       1  LIG       0.0000
     7  O7         1.7490     -0.6231      0.6272  O       1  LIG       0.0000
     8  C8         1.5773     -0.4775      0.0205  C       1  LIG       0.0000
     9  C9        -0.9385     -0.7496     -0.1820  C       1  LIG       0.0000
    10  H10       -1.9752      2.5110     -0.7815  H       1  LIG       0.0000
    11  H11       -2.4555      1.3819     -1.0894  H       1  LIG       0.0000
    12  H12       -0.4944      2.1436      0.2721  H       1  LIG       0.0000
    13  H13       -2.4679      0.1087      0.0166  H       1  LIG       0.0000
    14  H14        2.3960      0.0598     -0.7893  H       1  LIG       0.0000
    15  H15        2.3323      0.1553      0.3759  H       1  LIG       0.0000
    16  H16        0.6325     -0.1870      2.2477  H       1  LIG       0.0000
    17  H17        1.9281     -1.3899     -0.9183  H       1  LIG       0.0000
    18  H18        1.4652     -2.4201      0.0042  H       1  LIG       0.0000
    19  H19       -2.1399     -0.8336      0.6698  H       1  LIG       0.0000
@<TRIPOS>BOND
    1     1    11  1
    2     2     3  1
    3     3     4  1
    4     1    10  1
    5     1     2  1
    6     1    12  1
    7     2    13  1
    8     8    17  1
    9     2     9  1
   10     8    18  1
   11     4     8  1
   12     4     5  1
   13     4     9  1
   14     7     8  1
   15     5    15  1
   16     5    14  1
   17     5     6  1
   18     9    19  1
   19     6     9  1
   20     6     7  1
   21     6    16  1
