@<TRIPOS>MOLECULE
generated_molecule
23 23 0 0 0
SMALL
NO_CHARGES

@<TRIPOS>ATOM
     1  C1        -0.5096      2.0648     -0.3928  C       1  LIG       0.0000
     2  C2        -0.8271      0.5126      0.0420  C       1  LIG       0.0000
     3  O3        -0.2878     -0.1166     -1.7611  O       1  LIG       0.0000
     4  C4         0.3033     -1.4810     -1.6584  C       1  LIG       0.0000
     5  C5         0.1432     -0.8272     -0.8257  C       1  LIG       0.0000
     6  C6         0.9267     -0.7753      0.5056  C       1  LIG       0.0000
     7  O7         0.5802     -1.9041      0.3994  O       1  LIG       0.0000
     8  C8        -0.0588     -0.6868      0.6095  C       1  LIG       0.0000
     9  C9        -0.1595      0.4092      1.5617  C       1  LIG       0.0000
    10  H10       -1.0277      2.5921      0.6847  H       1  LIG       0.0000
    11  H11       -0.6371      1.9945     -1.4244  H       1  LIG       0.0000
    12  H12       -0.9819      2.5066     -1.0756  H       1  LIG       0.0000
    13  H13       -2.0901      0.0655     -0.5545  H       1  LIG       0.0000
    14  H14        1.7940     -1.0365     -1.6248  H       1  LIG       0.0000
    15  H15        1.0492     -1.6127     -1.4139  H       1  LIG       0.0000
    16  H16       -0.5198     -0.1732      0.7132  H       1  LIG       0.0000
    17  H17        0.1648     -0.1091      1.6431  H       1  LIG       0.0000
    18  H18        1.0444     -0.2121      0.6587  H       1  LIG       0.0000
    19  H19        0.1579     -2.6104     -0.4622  H       1  LIG       0.0000
    20  H20       -0.7765     -0.9756      0.5652  H       1  LIG       0.0000
    21  H21        0.7821      1.6049      1.0833  H       1  LIG       0.0000
    22  H22        0.4690     -0.6459      1.4671  H       1  LIG       0.0000
    23  H23        0.4611      1.4163      1.2601  H       1  LIG       0.0000
@<TRIPOS>BOND
    1     4    15  1
    2     1    11  1
    3     3     4  1
    4     2     3  1
    5     4    14  1
    6     4     5  1
    7     1    10  1
    8     1     2  1
    9     1    12  1
   10     7    19  1
   11     2    13  1
   12     2     8  1
   13     5     7  1
   14     5     8  1
   15     5     6  1
   16     6    16  1
   17     8    20  1
   18     8     9  1
   19     6    18  1
   20     6    17  1
   21     9    21  1
   22     9    22  1
   23     9    23  1
