@<TRIPOS>MOLECULE
generated_molecule
21 23 0 0 0
SMALL
NO_CHARGES

@<TRIPOS>ATOM
     1  O1         1.5703      1.8126     -0.1159  O       1  LIG       0.0000
     2  C2         1.5675      0.6077     -0.0055  C       1  LIG       0.0000
     3  C3         1.5510      0.3334      1.3521  C       1  LIG       0.0000
     4  C4         0.3423     -0.0612      0.8275  C       1  LIG       0.0000
     5  C5        -0.6193      1.0508      0.1566  C       1  LIG       0.0000
     6  C6        -1.2111      0.2998     -0.3778  C       1  LIG       0.0000
     7  C7        -1.6792     -0.0529      0.4249  C       1  LIG       0.0000
     8  C8         0.1781     -0.6425      1.0438  C       1  LIG       0.0000
     9  C9         0.7105      0.4680     -0.7637  C       1  LIG       0.0000
    10  H10        1.7789      1.4676     -1.5061  H       1  LIG       0.0000
    11  H11        1.6189     -0.6725     -0.7409  H       1  LIG       0.0000
    12  H12        2.4753     -1.1632      0.6363  H       1  LIG       0.0000
    13  H13        1.1592      0.7545      0.6908  H       1  LIG       0.0000
    14  H14       -0.2343      0.2608     -0.9267  H       1  LIG       0.0000
    15  H15       -1.7683     -0.4574      0.3900  H       1  LIG       0.0000
    16  H16       -1.2107      0.7085     -1.3333  H       1  LIG       0.0000
    17  H17       -2.2494     -1.0462      1.1390  H       1  LIG       0.0000
    18  H18       -1.6437     -1.4874      0.0881  H       1  LIG       0.0000
    19  H19       -0.9554     -1.5926      0.8631  H       1  LIG       0.0000
    20  H20       -1.1087     -1.2260     -0.2921  H       1  LIG       0.0000
    21  H21       -0.2719      0.6381     -1.5502  H       1  LIG       0.0000
@<TRIPOS>BOND
    1     2    11  1
    2     6    16  1
    3     9    21  1
    4     1     2  1
    5     1    10  1
    6     2     9  1
    7     2     3  1
    8     6     9  1
    9     4     9  1
   10     6     7  1
   11     5     6  1
   12     7    17  1
   13     7    18  1
   14     7     8  1
   15     5    14  1
   16     3    12  1
   17     4     5  1
   18     5    15  1
   19     3     4  1
   20     3    13  1
   21     4     8  1
   22     8    20  1
   23     8    19  1
