@<TRIPOS>MOLECULE
generated_molecule
14 14 0 0 0
SMALL
NO_CHARGES

@<TRIPOS>ATOM
     1  N1         1.7324      1.8921      0.1499  N       1  LIG       0.0000
     2  C2         1.9398      0.7873      0.4642  C       1  LIG       0.0000
     3  O3         0.8520      0.7081     -0.6551  O       1  LIG       0.0000
     4  C4         0.5995     -0.6741     -0.7985  C       1  LIG       0.0000
     5  C5         0.2418     -1.1527      0.3394  C       1  LIG       0.0000
     6  C6        -1.5125     -1.1944      0.7275  C       1  LIG       0.0000
     7  C7        -1.9095     -0.7966     -0.4803  C       1  LIG       0.0000
     8  N8        -0.6295      0.3946     -0.9014  N       1  LIG       0.0000
     9  H9         1.8223      2.7708      0.3605  H       1  LIG       0.0000
    10  H10        0.6695      0.7844      0.2454  H       1  LIG       0.0000
    11  H11        0.3160     -2.1967      0.9184  H       1  LIG       0.0000
    12  H12       -0.7955     -3.0127      0.3407  H       1  LIG       0.0000
    13  H13       -2.1282      0.4188      0.4000  H       1  LIG       0.0000
    14  H14       -1.1980      1.2710     -1.1107  H       1  LIG       0.0000
@<TRIPOS>BOND
    1     2    10  1
    2     6    12  1
    3     1     9  1
    4     5    11  1
    5     5     6  ar
    6     6     7  ar
    7     4     5  ar
    8     1     2  1
    9     2     3  1
   10     7    13  1
   11     7     8  ar
   12     4     8  ar
   13     3     4  1
   14     8    14  1
