@<TRIPOS>MOLECULE
generated_molecule
18 18 0 0 0
SMALL
NO_CHARGES

@<TRIPOS>ATOM
     1  C1         0.8916      2.3181     -0.1226  C       1  LIG       0.0000
     2  O2         0.2246      0.8336      0.2944  O       1  LIG       0.0000
     3  C3        -0.2974      0.2620     -1.3141  C       1  LIG       0.0000
     4  C4        -0.3920     -0.7316      0.1256  C       1  LIG       0.0000
     5  C5         0.4971     -1.3854      0.9781  C       1  LIG       0.0000
     6  O6         1.3273     -0.3944      0.8278  O       1  LIG       0.0000
     7  C7        -0.6550     -0.9696     -1.7994  C       1  LIG       0.0000
     8  C8        -1.6450     -0.6032     -1.3248  C       1  LIG       0.0000
     9  N9        -2.7283     -1.0493     -1.1344  N       1  LIG       0.0000
    10  H10        1.4416      1.6219      1.0084  H       1  LIG       0.0000
    11  H11        0.7932      1.8516      1.3730  H       1  LIG       0.0000
    12  H12       -0.0334      2.5767     -0.6656  H       1  LIG       0.0000
    13  H13       -0.3396      0.9374     -1.1167  H       1  LIG       0.0000
    14  H14       -0.4201     -2.3057     -0.2689  H       1  LIG       0.0000
    15  H15       -0.9275     -1.1017      1.0671  H       1  LIG       0.0000
    16  H16        0.6444     -1.7329      2.4111  H       1  LIG       0.0000
    17  H17        2.1715      1.2289      0.9521  H       1  LIG       0.0000
    18  H18       -0.5530     -1.3565     -1.2910  H       1  LIG       0.0000
@<TRIPOS>BOND
    1     7    18  1
    2     3    13  1
    3     3     7  1
    4     7     8  1
    5     4     7  1
    6     4    14  1
    7     3     4  1
    8     2     3  1
    9     8     9  3
   10     4     5  1
   11     1    10  1
   12     1    11  1
   13     1     2  1
   14     1    12  1
   15     6    17  1
   16     5     6  1
   17     5    15  1
   18     5    16  1
