@<TRIPOS>MOLECULE
generated_molecule
19 20 0 0 0
SMALL
NO_CHARGES

@<TRIPOS>ATOM
     1  C1         1.1738      2.4415      0.4088  C       1  LIG       0.0000
     2  C2         0.9934      0.8551     -0.5424  C       1  LIG       0.0000
     3  C3        -0.1904      0.8083      0.3541  C       1  LIG       0.0000
     4  C4        -0.4027     -1.0386     -0.1582  C       1  LIG       0.0000
     5  C5         0.3642     -2.4567     -0.4702  C       1  LIG       0.0000
     6  C6        -1.5168     -1.9979     -0.4967  C       1  LIG       0.0000
     7  O7        -1.8448     -2.1517      0.1544  O       1  LIG       0.0000
     8  C8        -1.7751     -0.5637      0.4218  C       1  LIG       0.0000
     9  O9        -2.5411     -0.0006      1.2968  O       1  LIG       0.0000
    10  H10        0.4339      2.0556     -0.0652  H       1  LIG       0.0000
    11  H11        0.0851      2.3098     -0.1200  H       1  LIG       0.0000
    12  H12        2.2555      2.3017     -0.1554  H       1  LIG       0.0000
    13  H13        1.4789      1.6443     -0.5062  H       1  LIG       0.0000
    14  H14        1.0841     -0.2594      0.1380  H       1  LIG       0.0000
    15  H15        0.0189      1.6866      0.0285  H       1  LIG       0.0000
    16  H16        0.1938      1.7296      1.4659  H       1  LIG       0.0000
    17  H17        1.1425     -1.5223     -1.0878  H       1  LIG       0.0000
    18  H18        0.2876     -2.7676      0.2742  H       1  LIG       0.0000
    19  H19       -1.2408     -3.0741     -0.9402  H       1  LIG       0.0000
@<TRIPOS>BOND
    1     8     9  2
    2     2    14  1
    3     1    11  1
    4     1    10  1
    5     1     2  1
    6     1    12  1
    7     2    13  1
    8     2     3  1
    9     7     8  1
   10     4     8  1
   11     3    15  1
   12     6     7  1
   13     3     4  1
   14     3    16  1
   15     4     5  1
   16     4     6  1
   17     5    18  1
   18     5     6  1
   19     5    17  1
   20     6    19  1
