@<TRIPOS>MOLECULE
generated_molecule
27 26 0 0 0
SMALL
NO_CHARGES

@<TRIPOS>ATOM
     1  C1        -0.5382      2.5450      0.0422  C       1  LIG       0.0000
     2  C2         0.3057      1.6262      0.4172  C       1  LIG       0.0000
     3  C3         0.2624      0.2020      0.4636  C       1  LIG       0.0000
     4  O4        -0.9956     -0.6684      0.5542  O       1  LIG       0.0000
     5  C5        -0.5734     -1.3618      1.2833  C       1  LIG       0.0000
     6  C6        -0.5369     -2.0745     -0.2713  C       1  LIG       0.0000
     7  C7         0.0269     -0.8692      0.2001  C       1  LIG       0.0000
     8  C8        -1.2499      0.6199     -0.3951  C       1  LIG       0.0000
     9  C9         1.4065     -0.2030     -1.0883  C       1  LIG       0.0000
    10  H10       -0.8620      1.8465      0.4870  H       1  LIG       0.0000
    11  H11       -0.3133      2.8999     -0.3079  H       1  LIG       0.0000
    12  H12        0.3631      2.6776     -0.8116  H       1  LIG       0.0000
    13  H13       -0.5506      1.3354      0.4919  H       1  LIG       0.0000
    14  H14        0.6353      0.6673      0.6923  H       1  LIG       0.0000
    15  H15        0.3243     -0.1624     -1.0363  H       1  LIG       0.0000
    16  H16        1.1052      0.1251      0.1866  H       1  LIG       0.0000
    17  H17        0.4774     -1.0814      0.5275  H       1  LIG       0.0000
    18  H18       -0.5927     -2.8539      1.1146  H       1  LIG       0.0000
    19  H19       -0.1452     -1.0792     -0.3738  H       1  LIG       0.0000
    20  H20       -0.9838     -0.4603     -0.6864  H       1  LIG       0.0000
    21  H21       -0.0962     -0.7670     -1.0865  H       1  LIG       0.0000
    22  H22       -0.4573      0.5906     -0.2790  H       1  LIG       0.0000
    23  H23       -0.5463      0.2774      0.7269  H       1  LIG       0.0000
    24  H24       -0.3883      0.9187      0.6882  H       1  LIG       0.0000
    25  H25        0.8005     -2.2736     -0.4175  H       1  LIG       0.0000
    26  H26        1.8073     -1.7349     -1.1110  H       1  LIG       0.0000
    27  H27        1.3151     -0.7419     -0.0110  H       1  LIG       0.0000
@<TRIPOS>BOND
    1     8    23  1
    2     7    21  1
    3     9    26  1
    4     8    24  1
    5     7     8  1
    6     8    22  1
    7     7     9  1
    8     6     7  1
    9     9    25  1
   10     9    27  1
   11     5    17  1
   12     5    18  1
   13     5     6  1
   14     4     5  1
   15     6    20  1
   16     6    19  1
   17     3    15  1
   18     3     4  1
   19     3    16  1
   20     2     3  1
   21     1    11  1
   22     2    14  1
   23     1     2  1
   24     2    13  1
   25     1    10  1
   26     1    12  1
