@<TRIPOS>MOLECULE
generated_molecule
23 24 0 0 0
SMALL
NO_CHARGES

@<TRIPOS>ATOM
     1  C1        -1.0511      0.9644      0.4522  C       1  LIG       0.0000
     2  C2         0.3784      1.4251      1.1402  C       1  LIG       0.0000
     3  C3        -1.0959      0.7728      0.6352  C       1  LIG       0.0000
     4  C4        -1.5480     -0.0714     -0.6616  C       1  LIG       0.0000
     5  C5        -0.5369     -1.8936     -0.7126  C       1  LIG       0.0000
     6  C6         0.3335     -1.2172     -1.5783  C       1  LIG       0.0000
     7  C7         0.8684     -1.1640     -0.6398  C       1  LIG       0.0000
     8  C8         1.2393      0.2584     -0.2036  C       1  LIG       0.0000
     9  C9         0.4766      0.4242      0.9561  C       1  LIG       0.0000
    10  H10       -1.0692      1.5457     -0.6142  H       1  LIG       0.0000
    11  H11       -1.3292      2.1868     -0.3529  H       1  LIG       0.0000
    12  H12        0.1166      2.1889     -0.4173  H       1  LIG       0.0000
    13  H13       -0.1392     -0.3032      1.4467  H       1  LIG       0.0000
    14  H14       -1.8133     -0.5679      0.8381  H       1  LIG       0.0000
    15  H15       -1.8792      0.1860      0.2742  H       1  LIG       0.0000
    16  H16       -1.5854     -1.5024     -1.7325  H       1  LIG       0.0000
    17  H17        0.5330     -0.2222     -0.8272  H       1  LIG       0.0000
    18  H18        1.5455     -2.1102     -0.4590  H       1  LIG       0.0000
    19  H19        2.0842     -1.6657      0.1281  H       1  LIG       0.0000
    20  H20       -0.2076     -0.9656      0.0543  H       1  LIG       0.0000
    21  H21        1.4404     -0.0444      0.6381  H       1  LIG       0.0000
    22  H22        1.8902      0.3431      0.9969  H       1  LIG       0.0000
    23  H23        1.3488      1.4327      0.6391  H       1  LIG       0.0000
@<TRIPOS>BOND
    1     7    18  1
    2     8    20  1
    3     6    17  1
    4     7    19  1
    5     7     8  1
    6     6     7  1
    7     8    21  1
    8     8     9  1
    9     5     6  2
   10     9    23  1
   11     9    22  1
   12     2     9  1
   13     5    16  1
   14     4     5  1
   15     1    11  1
   16     1     4  1
   17     1     2  1
   18     1    10  1
   19     4    15  1
   20     3     4  1
   21     2     3  1
   22     2    12  1
   23     3    13  1
   24     3    14  1
