@<TRIPOS>MOLECULE
generated_molecule
15 15 0 0 0
SMALL
NO_CHARGES

@<TRIPOS>ATOM
     1  C1         0.6712     -1.7316     -1.0070  C       1  LIG       0.0000
     2  C2        -0.0814     -1.4419      0.4876  C       1  LIG       0.0000
     3  C3        -1.2412     -0.2134      0.3599  C       1  LIG       0.0000
     4  N4        -1.2838      0.3578     -1.2890  N       1  LIG       0.0000
     5  C5         0.4006      0.4844     -0.3454  C       1  LIG       0.0000
     6  C6        -0.0314      2.2474      0.7095  C       1  LIG       0.0000
     7  C7         0.2919      0.9759      0.6407  C       1  LIG       0.0000
     8  O8         0.5132      1.4703     -0.8162  O       1  LIG       0.0000
     9  H9         2.1091     -1.0740      0.1546  H       1  LIG       0.0000
    10  H10       -2.2664     -1.2197     -0.1024  H       1  LIG       0.0000
    11  H11       -0.7607     -1.7199      0.4802  H       1  LIG       0.0000
    12  H12        0.5936      2.2731     -0.2207  H       1  LIG       0.0000
    13  H13        1.1253      1.7096      1.5023  H       1  LIG       0.0000
    14  H14       -0.5339     -1.1329     -0.0233  H       1  LIG       0.0000
    15  H15        0.4939     -0.9851     -0.5309  H       1  LIG       0.0000
@<TRIPOS>BOND
    1     7    14  1
    2     6    12  1
    3     6     7  1
    4     7    15  1
    5     7     8  1
    6     6    13  1
    7     5     6  1
    8     5     8  1
    9     1     9  1
   10     4     5  1
   11     1     2  3
   12     3     4  1
   13     2     3  1
   14     3    11  1
   15     3    10  1
