@<TRIPOS>MOLECULE
generated_molecule
15 16 0 0 0
SMALL
NO_CHARGES

@<TRIPOS>ATOM
     1  O1         0.5940     -2.3628     -0.4632  O       1  LIG       0.0000
     2  C2         1.0822     -0.9921      0.0979  C       1  LIG       0.0000
     3  C3        -0.2347     -0.5046      0.1204  C       1  LIG       0.0000
     4  C4         1.1967      0.7095     -0.6992  C       1  LIG       0.0000
     5  C5         0.0880      1.3656      0.6507  C       1  LIG       0.0000
     6  C6        -0.7792      0.2728      1.1424  C       1  LIG       0.0000
     7  C7        -0.7177     -0.7773     -0.8218  C       1  LIG       0.0000
     8  O8        -1.5636     -1.3266      0.0372  O       1  LIG       0.0000
     9  C9         0.8240     -0.1836     -1.4765  C       1  LIG       0.0000
    10  H10       -1.5989      0.1596     -0.0612  H       1  LIG       0.0000
    11  H11       -0.0144      0.3039      0.8140  H       1  LIG       0.0000
    12  H12        1.4373      1.4788      0.3894  H       1  LIG       0.0000
    13  H13       -0.3614      1.8975      0.6408  H       1  LIG       0.0000
    14  H14       -2.1230      0.2524      0.4601  H       1  LIG       0.0000
    15  H15        2.1708     -0.2931     -0.8310  H       1  LIG       0.0000
@<TRIPOS>BOND
    1     9    15  1
    2     1     2  2
    3     3    10  1
    4     2     9  1
    5     2     3  1
    6     4     9  1
    7     7     9  1
    8     4    12  1
    9     3     4  1
   10     3    11  1
   11     4     5  1
   12     7     8  2
   13     6     7  1
   14     5     6  2
   15     5    13  1
   16     6    14  1
