@<TRIPOS>MOLECULE
generated_molecule
18 18 0 0 0
SMALL
NO_CHARGES

@<TRIPOS>ATOM
     1  O1         1.1717     -0.1648      0.0749  O       1  LIG       0.0000
     2  C2         1.1416      1.5640     -1.0950  C       1  LIG       0.0000
     3  C3        -0.0091      0.9483     -0.4935  C       1  LIG       0.0000
     4  C4        -0.0251     -0.3515     -0.0492  C       1  LIG       0.0000
     5  O5        -0.1482     -1.0648     -0.7792  O       1  LIG       0.0000
     6  C6        -0.1481     -1.2047      0.1447  C       1  LIG       0.0000
     7  C7        -0.8524     -0.1618      1.2488  C       1  LIG       0.0000
     8  C8        -1.0618      1.0053     -0.1384  C       1  LIG       0.0000
     9  N9         0.2856      1.9090     -0.6083  N       1  LIG       0.0000
    10  H10        0.7499     -1.2627      1.2460  H       1  LIG       0.0000
    11  H11        0.8846      1.5085     -0.0716  H       1  LIG       0.0000
    12  H12        1.9066      1.3461      0.0453  H       1  LIG       0.0000
    13  H13       -1.1427      0.6830      0.5085  H       1  LIG       0.0000
    14  H14        0.7708      1.8421     -0.0106  H       1  LIG       0.0000
    15  H15       -0.8172     -1.5238     -1.9652  H       1  LIG       0.0000
    16  H16        0.3618     -2.2052     -0.0887  H       1  LIG       0.0000
    17  H17       -1.2737     -1.6082      0.8510  H       1  LIG       0.0000
    18  H18       -1.7943     -1.2588      1.1805  H       1  LIG       0.0000
@<TRIPOS>BOND
    1     3    14  1
    2     5    15  1
    3     4     5  1
    4     1    10  1
    5     7    18  1
    6     2    11  1
    7     3     4  1
    8     2     3  1
    9     3    13  1
   10     4     7  1
   11     4     6  1
   12     7     8  1
   13     6     7  1
   14     8     9  3
   15     1     2  1
   16     2    12  1
   17     6    16  1
   18     6    17  1
