@<TRIPOS>MOLECULE
generated_molecule
23 23 0 0 0
SMALL
NO_CHARGES

@<TRIPOS>ATOM
     1  C1        -1.9849      1.0813      0.2149  C       1  LIG       0.0000
     2  C2        -0.9849     -0.1417      0.2124  C       1  LIG       0.0000
     3  C3        -0.3379     -1.0761     -0.3331  C       1  LIG       0.0000
     4  O4         0.1432     -1.0631      1.6012  O       1  LIG       0.0000
     5  C5         1.4297     -0.9421      0.3921  C       1  LIG       0.0000
     6  C6         0.8872     -0.8398     -0.2609  C       1  LIG       0.0000
     7  C7         0.5555     -1.1245     -1.0109  C       1  LIG       0.0000
     8  O8         0.9210      0.0151     -1.0033  O       1  LIG       0.0000
     9  C9         0.3930      0.3735      0.3286  C       1  LIG       0.0000
    10  H10       -0.2942      1.8781     -0.8428  H       1  LIG       0.0000
    11  H11       -0.9414      1.3077      0.6756  H       1  LIG       0.0000
    12  H12        0.1244      1.6658      0.7283  H       1  LIG       0.0000
    13  H13       -2.3094     -0.7699      0.4863  H       1  LIG       0.0000
    14  H14       -1.4466     -1.1282      0.1743  H       1  LIG       0.0000
    15  H15        0.4436     -0.1830     -1.2854  H       1  LIG       0.0000
    16  H16        0.7614     -0.2810      0.6153  H       1  LIG       0.0000
    17  H17        0.3430     -2.6181      0.2434  H       1  LIG       0.0000
    18  H18        1.4474     -0.5331     -1.5989  H       1  LIG       0.0000
    19  H19        0.1056      0.2999     -0.9335  H       1  LIG       0.0000
    20  H20       -0.6766     -0.3407     -0.8230  H       1  LIG       0.0000
    21  H21       -0.0794      1.4257      1.2777  H       1  LIG       0.0000
    22  H22        1.3045      1.0556      1.3456  H       1  LIG       0.0000
    23  H23        0.1956      1.9386     -0.2041  H       1  LIG       0.0000
@<TRIPOS>BOND
    1     2    14  1
    2     1    11  1
    3     9    21  1
    4     9    22  1
    5     2    13  1
    6     1     2  1
    7     2     3  1
    8     8     9  1
    9     9    23  1
   10     1    10  1
   11     1    12  1
   12     7     8  1
   13     7    20  1
   14     3     7  1
   15     6     7  1
   16     3    15  1
   17     3     4  1
   18     4     5  1
   19     6    19  1
   20     6    18  1
   21     5     6  1
   22     5    16  1
   23     5    17  1
