@<TRIPOS>MOLECULE
generated_molecule
22 24 0 0 0
SMALL
NO_CHARGES

@<TRIPOS>ATOM
     1  C1        -1.6910     -1.1843      0.7537  C       1  LIG       0.0000
     2  C2        -0.2966     -1.1471     -0.1932  C       1  LIG       0.0000
     3  N3        -1.4505     -1.1791     -0.6319  N       1  LIG       0.0000
     4  C4        -0.5454     -0.0305     -1.8346  C       1  LIG       0.0000
     5  C5         0.7281     -0.2823     -1.5324  C       1  LIG       0.0000
     6  C6         1.4746      0.1533      0.0048  C       1  LIG       0.0000
     7  C7        -0.5414      0.6125      0.4023  C       1  LIG       0.0000
     8  C8         0.4857      1.8815      0.9568  C       1  LIG       0.0000
     9  C9        -0.2863      1.0721      1.8232  C       1  LIG       0.0000
    10  H10       -2.1510     -1.4158      1.2428  H       1  LIG       0.0000
    11  H11       -0.8858     -2.0632      1.6233  H       1  LIG       0.0000
    12  H12        0.6491     -1.4122      0.0033  H       1  LIG       0.0000
    13  H13       -0.3159     -0.7473     -2.9476  H       1  LIG       0.0000
    14  H14       -1.7841      0.5844     -1.3717  H       1  LIG       0.0000
    15  H15        0.2574     -0.5512     -1.9976  H       1  LIG       0.0000
    16  H16        0.0277     -1.6287     -1.9122  H       1  LIG       0.0000
    17  H17        1.6898      0.3600      0.2830  H       1  LIG       0.0000
    18  H18        1.2100     -0.2419      0.3455  H       1  LIG       0.0000
    19  H19        1.8475      1.9098      0.9198  H       1  LIG       0.0000
    20  H20        1.6057      2.1632      0.2303  H       1  LIG       0.0000
    21  H21        0.2319      1.2313      1.6265  H       1  LIG       0.0000
    22  H22       -0.2595      1.9157      2.2057  H       1  LIG       0.0000
@<TRIPOS>BOND
    1     6    17  1
    2     5    16  1
    3     6    18  1
    4     5     6  1
    5     6     7  1
    6     5    15  1
    7     4     5  1
    8     8    19  1
    9     9    22  1
   10     4    14  1
   11     7     8  1
   12     8     9  1
   13     8    20  1
   14     7     9  1
   15     2     7  1
   16     4    13  1
   17     3     4  1
   18     9    21  1
   19     1    11  1
   20     1     2  1
   21     2     3  1
   22     2    12  1
   23     1     3  1
   24     1    10  1
