@<TRIPOS>MOLECULE
generated_molecule
17 16 0 0 0
SMALL
NO_CHARGES

@<TRIPOS>ATOM
     1  C1        -0.9920      2.7630      0.1079  C       1  LIG       0.0000
     2  O2        -0.7986      1.2752      0.1277  O       1  LIG       0.0000
     3  C3        -1.1024      0.0756      0.7050  C       1  LIG       0.0000
     4  C4         0.1711     -0.9220      1.0391  C       1  LIG       0.0000
     5  O5         1.7416     -0.9721      1.0015  O       1  LIG       0.0000
     6  C6         1.2990     -1.1138     -0.6673  C       1  LIG       0.0000
     7  C7         0.9353     -3.0136     -1.4476  C       1  LIG       0.0000
     8  N8        -0.3891     -3.2831     -0.0747  N       1  LIG       0.0000
     9  H9        -0.3976      2.6494     -1.3935  H       1  LIG       0.0000
    10  H10       -1.2034      2.5990     -0.4489  H       1  LIG       0.0000
    11  H11        0.5382      2.9081     -0.3914  H       1  LIG       0.0000
    12  H12       -1.1199      1.1013      0.7145  H       1  LIG       0.0000
    13  H13       -0.7609      0.0306      2.0501  H       1  LIG       0.0000
    14  H14       -0.2406     -1.7323      1.2379  H       1  LIG       0.0000
    15  H15        1.5113     -1.0359     -0.0108  H       1  LIG       0.0000
    16  H16        0.9708     -0.5724     -1.3446  H       1  LIG       0.0000
    17  H17       -0.1627     -0.7570     -1.2046  H       1  LIG       0.0000
@<TRIPOS>BOND
    1     1    10  1
    2     5    15  1
    3     4     5  1
    4     1     2  1
    5     1     9  1
    6     1    11  1
    7     2     3  1
    8     4    14  1
    9     3     4  1
   10     4     6  1
   11     3    12  1
   12     3    13  1
   13     7     8  3
   14     6     7  1
   15     6    16  1
   16     6    17  1
