@<TRIPOS>MOLECULE
generated_molecule
17 16 0 0 0
SMALL
NO_CHARGES

@<TRIPOS>ATOM
     1  C1         0.3389      0.5711      1.2639  C       1  LIG       0.0000
     2  C2         0.8867      1.3644      0.0351  C       1  LIG       0.0000
     3  C3         0.0997      0.1216      0.8614  C       1  LIG       0.0000
     4  C4        -0.0245      0.1191     -0.3707  C       1  LIG       0.0000
     5  O5         1.3800     -0.5735     -0.4156  O       1  LIG       0.0000
     6  C6        -0.3419     -0.7130     -1.1850  C       1  LIG       0.0000
     7  C7         0.4651     -1.4853     -0.1495  C       1  LIG       0.0000
     8  C8        -1.1101     -1.5378      0.0595  C       1  LIG       0.0000
     9  O9        -0.7152     -1.5790     -0.8128  O       1  LIG       0.0000
    10  H10       -0.5061      1.4261      0.0471  H       1  LIG       0.0000
    11  H11        0.4353      2.0599      0.8621  H       1  LIG       0.0000
    12  H12        0.2241      1.6910      1.5792  H       1  LIG       0.0000
    13  H13       -0.2449      0.5130     -0.3276  H       1  LIG       0.0000
    14  H14        0.4708      0.0307     -1.2377  H       1  LIG       0.0000
    15  H15       -0.3989      0.1137      0.2977  H       1  LIG       0.0000
    16  H16        0.5512     -0.0509      0.8153  H       1  LIG       0.0000
    17  H17       -1.5100     -2.0710     -1.3224  H       1  LIG       0.0000
@<TRIPOS>BOND
    1     8     9  2
    2     1    10  1
    3     8    17  1
    4     6     8  1
    5     1    11  1
    6     1     2  1
    7     1    12  1
    8     2     3  3
    9     3     4  1
   10     6    13  1
   11     4     6  1
   12     6     7  1
   13     4     5  2
   14     7    14  1
   15     7    16  1
   16     7    15  1
