@<TRIPOS>MOLECULE
generated_molecule
17 19 0 0 0
SMALL
NO_CHARGES

@<TRIPOS>ATOM
     1  C1        -0.5575      2.0773      0.5853  C       1  LIG       0.0000
     2  N2        -1.3859      0.6880     -0.1610  N       1  LIG       0.0000
     3  C3        -1.0665      0.1827     -0.8441  C       1  LIG       0.0000
     4  C4         1.4344     -0.0259     -0.8580  C       1  LIG       0.0000
     5  C5         0.6372     -0.6226     -0.9499  C       1  LIG       0.0000
     6  C6        -0.6771      0.1555     -1.0665  C       1  LIG       0.0000
     7  C7         0.0042     -0.0410     -0.3644  C       1  LIG       0.0000
     8  C8         2.0634     -3.7596      0.8367  C       1  LIG       0.0000
     9  N9         1.0234     -2.5373      1.6644  N       1  LIG       0.0000
    10  H10       -1.4299      1.6592      1.3516  H       1  LIG       0.0000
    11  H11       -0.5067      2.3916      1.0303  H       1  LIG       0.0000
    12  H12        0.5547      2.1594     -0.4807  H       1  LIG       0.0000
    13  H13       -1.1417      0.8460      0.5237  H       1  LIG       0.0000
    14  H14        1.6837     -1.8762     -0.3072  H       1  LIG       0.0000
    15  H15       -0.0059     -1.2890      0.1897  H       1  LIG       0.0000
    16  H16       -0.6142      1.5472     -0.6757  H       1  LIG       0.0000
    17  H17       -0.0156     -1.5554     -0.4741  H       1  LIG       0.0000
@<TRIPOS>BOND
    1     3    13  1
    2     4    14  1
    3     3     4  1
    4     3     5  1
    5     2     3  1
    6     4     5  1
    7     4     7  1
    8     1    11  1
    9     5    15  1
   10     5     6  1
   11     1    10  1
   12     1     2  1
   13     2     6  1
   14     1    12  1
   15     7    17  1
   16     6     7  1
   17     7     8  1
   18     6    16  1
   19     8     9  3
