@<TRIPOS>MOLECULE
generated_molecule
21 20 0 0 0
SMALL
NO_CHARGES

@<TRIPOS>ATOM
     1  C1         0.1785      3.0940      0.0162  C       1  LIG       0.0000
     2  C2         0.1991      1.0523     -0.6363  C       1  LIG       0.0000
     3  C3        -0.4327      0.3252      0.3895  C       1  LIG       0.0000
     4  O4         0.5242      1.4379      0.6150  O       1  LIG       0.0000
     5  C5         0.7492     -1.3260      0.7273  C       1  LIG       0.0000
     6  C6        -0.4265     -2.1789      1.2328  C       1  LIG       0.0000
     7  O7        -0.8256     -2.0338     -0.5240  O       1  LIG       0.0000
     8  C8        -0.9882     -2.2858      0.1303  C       1  LIG       0.0000
     9  O9        -1.6624     -3.7080      0.2223  O       1  LIG       0.0000
    10  H10        1.1249      3.1931     -0.8899  H       1  LIG       0.0000
    11  H11       -0.0097      2.1367      0.3139  H       1  LIG       0.0000
    12  H12        0.9155      2.3998     -0.6918  H       1  LIG       0.0000
    13  H13        0.6544      1.9137     -1.6578  H       1  LIG       0.0000
    14  H14       -1.2681      1.2498     -0.0556  H       1  LIG       0.0000
    15  H15        0.3355      0.6369     -0.0791  H       1  LIG       0.0000
    16  H16        1.3841      1.4849     -0.3190  H       1  LIG       0.0000
    17  H17        0.0834     -1.5498     -0.2591  H       1  LIG       0.0000
    18  H18        0.4286     -0.7425     -0.1232  H       1  LIG       0.0000
    19  H19        0.6792     -2.7932      0.9652  H       1  LIG       0.0000
    20  H20       -0.3798     -1.3968      1.5080  H       1  LIG       0.0000
    21  H21       -1.2638     -0.9096     -0.8846  H       1  LIG       0.0000
@<TRIPOS>BOND
    1     6    19  1
    2     8     9  2
    3     8    21  1
    4     7     8  1
    5     6     7  1
    6     6    20  1
    7     5     6  1
    8     3    15  1
    9     5    18  1
   10     3     5  1
   11     5    17  1
   12     3     4  1
   13     4    16  1
   14     2     3  1
   15     1    11  1
   16     2    14  1
   17     1     2  1
   18     2    13  1
   19     1    10  1
   20     1    12  1
