@<TRIPOS>MOLECULE
generated_molecule
15 15 0 0 0
SMALL
NO_CHARGES

@<TRIPOS>ATOM
     1  N1         0.5024      2.7683     -0.4065  N       1  LIG       0.0000
     2  C2        -0.1601      1.8422     -0.7156  C       1  LIG       0.0000
     3  N3        -1.0331      0.6054     -0.9448  N       1  LIG       0.0000
     4  N4        -0.3493     -0.4086     -0.1384  N       1  LIG       0.0000
     5  C5         0.7471      0.3419      1.0487  C       1  LIG       0.0000
     6  C6         1.0522     -1.3874      0.3035  C       1  LIG       0.0000
     7  C7        -0.7290     -1.9020      0.4434  C       1  LIG       0.0000
     8  O8        -0.2778     -3.1752      0.7555  O       1  LIG       0.0000
     9  N9         0.5610      1.7624      0.6552  N       1  LIG       0.0000
    10  H10       -0.5486      1.4678     -0.3079  H       1  LIG       0.0000
    11  H11        0.4767      2.9059     -1.4330  H       1  LIG       0.0000
    12  H12       -1.3831     -0.4140     -1.0728  H       1  LIG       0.0000
    13  H13        1.2442     -0.5092     -0.3807  H       1  LIG       0.0000
    14  H14        0.2313     -2.2870      0.4946  H       1  LIG       0.0000
    15  H15       -0.3338     -1.6106      1.6987  H       1  LIG       0.0000
@<TRIPOS>BOND
    1     7     8  2
    2     7    15  1
    3     6     7  1
    4     4    12  1
    5     3     4  ar
    6     2     3  ar
    7     4     5  ar
    8     1     2  1
    9     1    11  1
   10     1    10  1
   11     2     9  ar
   12     5     6  1
   13     5     9  ar
   14     6    14  1
   15     6    13  1
