@<TRIPOS>MOLECULE
generated_molecule
13 14 0 0 0
SMALL
NO_CHARGES

@<TRIPOS>ATOM
     1  O1        -0.5927     -2.1066     -0.0960  O       1  LIG       0.0000
     2  C2         0.0163     -0.9994      0.8411  C       1  LIG       0.0000
     3  C3         1.0535      0.7571      0.2734  C       1  LIG       0.0000
     4  C4         0.0650      1.4580     -0.2982  C       1  LIG       0.0000
     5  N5        -0.5532      0.5345     -1.3621  N       1  LIG       0.0000
     6  C6         0.3487     -0.0706     -0.3365  C       1  LIG       0.0000
     7  C7         0.2451     -1.3729      0.9501  C       1  LIG       0.0000
     8  C8        -1.8024     -1.5220      0.1618  C       1  LIG       0.0000
     9  H9         1.3844      1.0523      0.0722  H       1  LIG       0.0000
    10  H10        0.9262      1.9543     -0.1338  H       1  LIG       0.0000
    11  H11        0.0417      1.8299     -0.2099  H       1  LIG       0.0000
    12  H12        0.5152     -1.4668     -0.3025  H       1  LIG       0.0000
    13  H13       -1.6477     -0.0478      0.4403  H       1  LIG       0.0000
@<TRIPOS>BOND
    1     6    12  1
    2     3     9  1
    3     3     5  1
    4     5     6  1
    5     4     5  1
    6     2     3  1
    7     3     4  1
    8     1     2  2
    9     2     6  1
   10     6     7  1
   11     4    10  1
   12     4    11  1
   13     7     8  3
   14     8    13  1
