@<TRIPOS>MOLECULE
generated_molecule
17 18 0 0 0
SMALL
NO_CHARGES

@<TRIPOS>ATOM
     1  O1         1.5593      2.3034     -0.2777  O       1  LIG       0.0000
     2  C2         1.7695      1.1677     -1.0033  C       1  LIG       0.0000
     3  C3         0.2443     -0.0953     -0.4398  C       1  LIG       0.0000
     4  C4        -1.4578      0.0450     -0.5034  C       1  LIG       0.0000
     5  C5        -1.0026     -0.6794      0.2291  C       1  LIG       0.0000
     6  C6        -2.4224     -2.1433      0.9174  C       1  LIG       0.0000
     7  C7        -0.3290     -2.2897     -0.1428  C       1  LIG       0.0000
     8  C8         0.9233     -0.7116      0.7268  C       1  LIG       0.0000
     9  O9        -0.0446      0.6492      0.7803  O       1  LIG       0.0000
    10  H10        0.6845      2.0560      0.2209  H       1  LIG       0.0000
    11  H11        2.5896      0.3854     -0.1006  H       1  LIG       0.0000
    12  H12        1.9635      1.1115     -0.1273  H       1  LIG       0.0000
    13  H13       -0.8303      1.2958     -0.8461  H       1  LIG       0.0000
    14  H14       -1.5661      1.0755     -1.3723  H       1  LIG       0.0000
    15  H15       -0.8554     -0.9592      1.3411  H       1  LIG       0.0000
    16  H16       -1.2289     -2.5836     -1.2967  H       1  LIG       0.0000
    17  H17        0.0031     -0.6274      1.8945  H       1  LIG       0.0000
@<TRIPOS>BOND
    1     1    10  1
    2     8     9  1
    3     3     9  1
    4     2    11  1
    5     8    17  1
    6     1     2  1
    7     3     8  1
    8     5     8  1
    9     2     3  1
   10     2    12  1
   11     7    16  1
   12     3     4  1
   13     6     7  3
   14     5     6  1
   15     4     5  1
   16     5    15  1
   17     4    14  1
   18     4    13  1
