@<TRIPOS>MOLECULE
generated_molecule
18 19 0 0 0
SMALL
NO_CHARGES

@<TRIPOS>ATOM
     1  C1         0.3913      2.5652      1.0671  C       1  LIG       0.0000
     2  N2        -0.5906      1.2703      0.0663  N       1  LIG       0.0000
     3  C3        -0.4085      1.4505     -0.4345  C       1  LIG       0.0000
     4  C4         0.6420      0.0553     -0.7237  C       1  LIG       0.0000
     5  C5         1.1717     -1.3592      0.5125  C       1  LIG       0.0000
     6  O6         0.0758     -2.4177      0.3626  O       1  LIG       0.0000
     7  C7         0.0450     -2.3035     -0.9720  C       1  LIG       0.0000
     8  C8         0.1750     -0.7049     -0.9447  C       1  LIG       0.0000
     9  C9        -1.3253     -0.0088      0.0619  C       1  LIG       0.0000
    10  H10       -0.2851      3.3020      0.5973  H       1  LIG       0.0000
    11  H11       -0.6745      2.5410      1.7085  H       1  LIG       0.0000
    12  H12       -0.8618      2.3435      0.9172  H       1  LIG       0.0000
    13  H13       -1.7312      0.9600     -0.9362  H       1  LIG       0.0000
    14  H14        1.0522     -2.6831     -0.4454  H       1  LIG       0.0000
    15  H15        1.9981     -1.2942      0.8186  H       1  LIG       0.0000
    16  H16        0.4526     -2.5768      0.4737  H       1  LIG       0.0000
    17  H17        1.5969     -2.1254     -1.0143  H       1  LIG       0.0000
    18  H18       -1.7237      0.9859     -1.1149  H       1  LIG       0.0000
@<TRIPOS>BOND
    1     3    13  1
    2     5    15  1
    3     5    14  1
    4     4     5  1
    5     5     6  1
    6     3     4  ar
    7     2     3  ar
    8     1    11  1
    9     4     8  ar
   10     6     7  1
   11     1     2  1
   12     2     9  ar
   13     1    10  1
   14     1    12  1
   15     8     9  ar
   16     7     8  1
   17     9    18  1
   18     7    16  1
   19     7    17  1
