@<TRIPOS>MOLECULE
generated_molecule
23 23 0 0 0
SMALL
NO_CHARGES

@<TRIPOS>ATOM
     1  C1        -0.5460      1.8247     -0.6772  C       1  LIG       0.0000
     2  C2         1.1703      1.2154     -0.9307  C       1  LIG       0.0000
     3  C3        -0.3584      0.2595     -1.0731  C       1  LIG       0.0000
     4  C4        -0.8108      0.0684      0.1478  C       1  LIG       0.0000
     5  C5         0.1806     -1.0052      1.2523  C       1  LIG       0.0000
     6  C6        -1.6133     -1.3487      1.5881  C       1  LIG       0.0000
     7  O7        -2.1872     -0.6876      0.2906  O       1  LIG       0.0000
     8  C8         1.8388      0.2294     -0.8024  C       1  LIG       0.0000
     9  C9         1.0599      0.0971      0.1013  C       1  LIG       0.0000
    10  H10       -0.7100      2.2047     -0.5796  H       1  LIG       0.0000
    11  H11       -0.9621      1.2219      0.5185  H       1  LIG       0.0000
    12  H12       -0.9197      1.5243      0.7071  H       1  LIG       0.0000
    13  H13       -0.7498     -0.0563     -0.7251  H       1  LIG       0.0000
    14  H14       -1.0875      0.5780     -1.5152  H       1  LIG       0.0000
    15  H15        0.6434     -1.1906     -0.1199  H       1  LIG       0.0000
    16  H16        0.2867      0.9820      0.7489  H       1  LIG       0.0000
    17  H17       -0.6088     -1.8429      0.1427  H       1  LIG       0.0000
    18  H18       -0.0016     -0.1756      0.1659  H       1  LIG       0.0000
    19  H19       -1.2011     -2.0301      1.9077  H       1  LIG       0.0000
    20  H20        1.4076     -0.1238     -1.2856  H       1  LIG       0.0000
    21  H21        2.8033     -0.2393     -1.6653  H       1  LIG       0.0000
    22  H22        1.1829     -0.5600      0.5737  H       1  LIG       0.0000
    23  H23        1.1829     -0.9452      1.2295  H       1  LIG       0.0000
@<TRIPOS>BOND
    1     6    19  1
    2     6     7  2
    3     5     6  1
    4     4    16  1
    5     5    17  1
    6     4     5  1
    7     5    18  1
    8     4    15  1
    9     3     4  1
   10     8    20  1
   11     3    13  1
   12     8    21  1
   13     2     3  1
   14     3    14  1
   15     2     8  1
   16     8     9  1
   17     1    11  1
   18     1     2  1
   19     2     9  1
   20     1    10  1
   21     1    12  1
   22     9    23  1
   23     9    22  1
