@<TRIPOS>MOLECULE
generated_molecule
22 23 0 0 0
SMALL
NO_CHARGES

@<TRIPOS>ATOM
     1  C1        -0.8117      1.7716      0.5397  C       1  LIG       0.0000
     2  C2        -0.7679      0.2383     -0.2838  C       1  LIG       0.0000
     3  C3         0.6283      1.0148     -0.8951  C       1  LIG       0.0000
     4  C4         0.4064      1.4723      0.3371  C       1  LIG       0.0000
     5  C5         0.2597      0.1757     -1.3881  C       1  LIG       0.0000
     6  C6         0.4466     -0.8705     -0.4347  C       1  LIG       0.0000
     7  N7         0.1475     -2.2067      0.0362  N       1  LIG       0.0000
     8  C8        -1.3526     -1.7443     -0.3358  C       1  LIG       0.0000
     9  C9        -1.1485     -1.4338      1.2699  C       1  LIG       0.0000
    10  H10       -1.3907      1.9052     -0.9228  H       1  LIG       0.0000
    11  H11       -0.5840      1.0289      0.0708  H       1  LIG       0.0000
    12  H12        0.0378      0.9996     -0.1150  H       1  LIG       0.0000
    13  H13       -1.9089      0.7821      0.1466  H       1  LIG       0.0000
    14  H14        0.9825      2.4057      0.4311  H       1  LIG       0.0000
    15  H15        0.7492      1.6996     -0.7703  H       1  LIG       0.0000
    16  H16        0.4235      2.1357     -0.5344  H       1  LIG       0.0000
    17  H17        1.3763     -0.2429     -2.0958  H       1  LIG       0.0000
    18  H18        1.9425     -1.0387     -0.5161  H       1  LIG       0.0000
    19  H19        1.2785     -1.6904      0.2889  H       1  LIG       0.0000
    20  H20       -0.0691     -2.2745      1.6386  H       1  LIG       0.0000
    21  H21       -0.4666     -2.5978      1.6549  H       1  LIG       0.0000
    22  H22       -0.1788     -1.5300      1.8778  H       1  LIG       0.0000
@<TRIPOS>BOND
    1     4    15  1
    2     4    16  1
    3     4    14  1
    4     3     4  1
    5     5    17  1
    6     3     5  2
    7     2     3  1
    8     1    11  1
    9     5     6  1
   10     2    13  1
   11     1     2  1
   12     2     8  1
   13     1    10  1
   14     1    12  1
   15     6    18  1
   16     6     8  1
   17     6     7  1
   18     7     8  1
   19     8     9  1
   20     7    19  1
   21     9    21  1
   22     9    20  1
   23     9    22  1
