@<TRIPOS>MOLECULE
generated_molecule
23 24 0 0 0
SMALL
NO_CHARGES

@<TRIPOS>ATOM
     1  C1        -0.9857      1.9298      1.3824  C       1  LIG       0.0000
     2  C2        -1.3689      0.9308      0.4391  C       1  LIG       0.0000
     3  C3        -0.0809      0.1352     -0.0507  C       1  LIG       0.0000
     4  C4         0.2128     -0.3544     -1.6217  C       1  LIG       0.0000
     5  C5        -0.1503      0.4827     -1.1207  C       1  LIG       0.0000
     6  C6         0.4608     -2.3140     -0.5869  C       1  LIG       0.0000
     7  C7         1.5912     -0.8017     -0.1611  C       1  LIG       0.0000
     8  C8        -0.3785     -1.4410      0.6045  C       1  LIG       0.0000
     9  O9        -0.0781     -1.3112      0.5671  O       1  LIG       0.0000
    10  H10       -1.3461      2.0388      0.6259  H       1  LIG       0.0000
    11  H11        0.2560      1.6517      2.2109  H       1  LIG       0.0000
    12  H12       -0.0853      1.6881      2.5632  H       1  LIG       0.0000
    13  H13       -1.6986     -0.3822      0.6152  H       1  LIG       0.0000
    14  H14       -0.7034      0.8212     -1.2046  H       1  LIG       0.0000
    15  H15        0.6406      0.2675      0.9278  H       1  LIG       0.0000
    16  H16        0.4465     -1.0433     -0.5756  H       1  LIG       0.0000
    17  H17        0.0020     -1.0523     -1.5339  H       1  LIG       0.0000
    18  H18        0.0647     -0.7690     -1.9343  H       1  LIG       0.0000
    19  H19        0.8940      0.7777     -0.8152  H       1  LIG       0.0000
    20  H20        1.1866      0.5509      0.3112  H       1  LIG       0.0000
    21  H21        0.5775     -0.2825     -0.7690  H       1  LIG       0.0000
    22  H22       -0.0083     -0.5603     -0.8371  H       1  LIG       0.0000
    23  H23        0.5514     -0.9625      0.9634  H       1  LIG       0.0000
@<TRIPOS>BOND
    1     3    15  1
    2     7    21  1
    3     7    19  1
    4     1    11  1
    5     3    14  1
    6     7    20  1
    7     6     7  1
    8     3     4  1
    9     2     3  1
   10     1    10  1
   11     1     2  1
   12     1    12  1
   13     4    16  1
   14     4     6  1
   15     4     5  1
   16     2    13  1
   17     2     5  1
   18     6     9  1
   19     6     8  1
   20     8     9  1
   21     5    18  1
   22     5    17  1
   23     8    22  1
   24     8    23  1
