@<TRIPOS>MOLECULE
generated_molecule
17 17 0 0 0
SMALL
NO_CHARGES

@<TRIPOS>ATOM
     1  C1        -0.6142      0.7646     -0.8508  C       1  LIG       0.0000
     2  C2        -0.3771     -0.2511      0.2365  C       1  LIG       0.0000
     3  C3         0.0821      1.2036      0.9799  C       1  LIG       0.0000
     4  C4         1.3024     -0.3541      0.5191  C       1  LIG       0.0000
     5  C5         0.2384     -1.3860      0.6592  C       1  LIG       0.0000
     6  O6         1.2008     -1.0682      0.1112  O       1  LIG       0.0000
     7  C7        -1.2813     -2.4219      0.2781  C       1  LIG       0.0000
     8  N8        -1.1442     -2.8558     -0.1128  N       1  LIG       0.0000
     9  H9        -1.0124      1.4852     -1.7010  H       1  LIG       0.0000
    10  H10       -2.0964     -0.2988     -0.5839  H       1  LIG       0.0000
    11  H11       -1.1799      1.6693     -1.0293  H       1  LIG       0.0000
    12  H12       -0.5475      2.1566      1.1335  H       1  LIG       0.0000
    13  H13       -0.4136      1.3051      0.0007  H       1  LIG       0.0000
    14  H14       -0.1894      2.1306     -0.1529  H       1  LIG       0.0000
    15  H15        1.2991     -1.2098     -0.4946  H       1  LIG       0.0000
    16  H16        2.4823     -0.6972      0.5750  H       1  LIG       0.0000
    17  H17        2.2509     -0.1723      0.4322  H       1  LIG       0.0000
@<TRIPOS>BOND
    1     3    12  1
    2     1    10  1
    3     4    15  1
    4     3    13  1
    5     3    14  1
    6     2     3  1
    7     4    16  1
    8     2     4  1
    9     4     5  1
   10     1     2  1
   11     2     5  1
   12     1     9  1
   13     1    11  1
   14     5     7  1
   15     5     6  1
   16     7     8  3
   17     6    17  1
