@<TRIPOS>MOLECULE
generated_molecule
18 18 0 0 0
SMALL
NO_CHARGES

@<TRIPOS>ATOM
     1  C1         0.1718      2.0776      0.4784  C       1  LIG       0.0000
     2  C2         0.6181      0.4531      0.5394  C       1  LIG       0.0000
     3  O3         0.5185      0.2595     -0.2433  O       1  LIG       0.0000
     4  C4        -1.5264      0.1155      0.7869  C       1  LIG       0.0000
     5  O5        -1.3443     -0.7136      0.4340  O       1  LIG       0.0000
     6  C6        -1.0882     -1.2662      1.0208  C       1  LIG       0.0000
     7  C7        -0.4961     -1.7880     -0.5340  C       1  LIG       0.0000
     8  C8         1.4454     -0.7633     -0.3570  C       1  LIG       0.0000
     9  N9         2.2751      0.4806     -0.9340  N       1  LIG       0.0000
    10  H10       -0.0859      1.5997     -1.1139  H       1  LIG       0.0000
    11  H11        0.4823      2.3961      0.6940  H       1  LIG       0.0000
    12  H12        1.3384      2.0752     -0.5026  H       1  LIG       0.0000
    13  H13        0.3437      0.1216     -0.3469  H       1  LIG       0.0000
    14  H14        0.5800     -1.1427      0.5450  H       1  LIG       0.0000
    15  H15       -2.0274      0.8755      0.3898  H       1  LIG       0.0000
    16  H16       -1.9399     -0.9735      0.1771  H       1  LIG       0.0000
    17  H17        0.3657     -2.0868      0.2248  H       1  LIG       0.0000
    18  H18        0.3692     -1.7203     -1.2582  H       1  LIG       0.0000
@<TRIPOS>BOND
    1     1    11  1
    2     8     9  3
    3     5     6  1
    4     4     5  1
    5     7    17  1
    6     7     8  1
    7     2    13  1
    8     1    10  1
    9     1     2  1
   10     1    12  1
   11     6     7  1
   12     7    18  1
   13     2     4  1
   14     2     3  1
   15     4     6  1
   16     6    16  1
   17     4    15  1
   18     3    14  1
