@<TRIPOS>MOLECULE
generated_molecule
20 20 0 0 0
SMALL
NO_CHARGES

@<TRIPOS>ATOM
     1  C1         0.8581      2.4182     -0.0902  C       1  LIG       0.0000
     2  C2        -0.0130      1.0816      1.1567  C       1  LIG       0.0000
     3  C3        -0.6610      0.2414      1.0445  C       1  LIG       0.0000
     4  C4         0.1815     -1.0376      0.9108  C       1  LIG       0.0000
     5  O5        -0.2679     -2.3055      0.1280  O       1  LIG       0.0000
     6  C6        -0.4763     -1.6595     -1.0225  C       1  LIG       0.0000
     7  C7        -0.6273     -0.1129     -1.5487  C       1  LIG       0.0000
     8  O8        -1.0303     -0.1370     -0.6219  O       1  LIG       0.0000
     9  H9         1.0322      2.5978      1.3853  H       1  LIG       0.0000
    10  H10        1.3039      2.6726      1.0411  H       1  LIG       0.0000
    11  H11        1.3938      0.8446      0.6233  H       1  LIG       0.0000
    12  H12       -1.2859      0.9970      0.0040  H       1  LIG       0.0000
    13  H13       -0.1288      1.8842      0.8194  H       1  LIG       0.0000
    14  H14        0.4566      1.2138      0.9738  H       1  LIG       0.0000
    15  H15        0.9542     -2.0020      1.6980  H       1  LIG       0.0000
    16  H16       -0.1489     -2.4745      0.7675  H       1  LIG       0.0000
    17  H17        0.1895     -1.9198     -2.1239  H       1  LIG       0.0000
    18  H18        0.4055     -1.6472     -1.6912  H       1  LIG       0.0000
    19  H19       -1.4218     -0.4426     -1.3351  H       1  LIG       0.0000
    20  H20       -0.7141     -0.2127     -2.1189  H       1  LIG       0.0000
@<TRIPOS>BOND
    1     6    17  1
    2     7    20  1
    3     7    19  1
    4     6     7  1
    5     7     8  1
    6     6    18  1
    7     5     6  1
    8     4     5  1
    9     3     8  1
   10     3    14  1
   11     3     4  1
   12     2     3  1
   13     4    16  1
   14     4    15  1
   15     1    10  1
   16     1     2  1
   17     2    13  1
   18     2    12  1
   19     1     9  1
   20     1    11  1
