@<TRIPOS>MOLECULE
generated_molecule
21 21 0 0 0
SMALL
NO_CHARGES

@<TRIPOS>ATOM
     1  C1        -0.2263      2.6170      0.7757  C       1  LIG       0.0000
     2  C2         0.5922      0.8955      0.5400  C       1  LIG       0.0000
     3  C3        -0.5927     -0.1288      0.9358  C       1  LIG       0.0000
     4  C4        -1.1536     -0.4566     -0.8426  C       1  LIG       0.0000
     5  C5        -0.5690     -1.6885     -0.5931  C       1  LIG       0.0000
     6  C6         0.7830     -1.3375     -0.5398  C       1  LIG       0.0000
     7  C7        -0.6407     -0.4955      0.5574  C       1  LIG       0.0000
     8  C8        -0.4973     -1.2250     -0.8550  C       1  LIG       0.0000
     9  C9        -1.2682     -0.4316     -1.3087  C       1  LIG       0.0000
    10  H10        1.2035      1.9162     -0.1648  H       1  LIG       0.0000
    11  H11        0.4655      2.5971      0.5776  H       1  LIG       0.0000
    12  H12        0.2076      2.2905      2.0822  H       1  LIG       0.0000
    13  H13        1.4412      1.1493      1.7181  H       1  LIG       0.0000
    14  H14        0.8906      0.4856      1.6087  H       1  LIG       0.0000
    15  H15       -0.4257      1.0682      0.0833  H       1  LIG       0.0000
    16  H16       -0.1473      0.2144     -0.5007  H       1  LIG       0.0000
    17  H17       -0.7336     -0.2740     -1.4840  H       1  LIG       0.0000
    18  H18        0.6378     -2.3595     -0.8315  H       1  LIG       0.0000
    19  H19       -0.8656     -2.7011      0.4834  H       1  LIG       0.0000
    20  H20        1.3650     -0.8694     -0.0225  H       1  LIG       0.0000
    21  H21       -0.4666     -1.2663     -2.2195  H       1  LIG       0.0000
@<TRIPOS>BOND
    1     6    20  1
    2     5    18  1
    3     5     6  1
    4     6     7  2
    5     5    19  1
    6     4     5  1
    7     9    21  1
    8     8     9  3
    9     7     8  1
   10     3     7  1
   11     3     4  1
   12     4    16  1
   13     4    17  1
   14     3    15  1
   15     2     3  1
   16     2    14  1
   17     2    13  1
   18     1     2  1
   19     1    11  1
   20     1    10  1
   21     1    12  1
