@<TRIPOS>MOLECULE
generated_molecule
20 19 0 0 0
SMALL
NO_CHARGES

@<TRIPOS>ATOM
     1  C1        -0.4360      2.5329     -0.1033  C       1  LIG       0.0000
     2  N2        -0.2047      1.3123     -0.4532  N       1  LIG       0.0000
     3  C3         0.1363      0.2922      0.6921  C       1  LIG       0.0000
     4  O4         0.6729      0.6892     -0.7290  O       1  LIG       0.0000
     5  N5         0.9231     -0.5481     -0.5724  N       1  LIG       0.0000
     6  C6         1.7844     -1.6209     -0.7394  C       1  LIG       0.0000
     7  C7        -0.1119     -0.4531      0.0910  C       1  LIG       0.0000
     8  C8        -1.2736     -1.5957      0.0767  C       1  LIG       0.0000
     9  N9        -0.9069     -0.3952      0.6061  N       1  LIG       0.0000
    10  H10       -1.2579      3.2657     -0.0727  H       1  LIG       0.0000
    11  H11       -0.3797      3.2865      0.6193  H       1  LIG       0.0000
    12  H12       -0.8177      2.2386      0.1954  H       1  LIG       0.0000
    13  H13        1.3092      1.8102     -0.8579  H       1  LIG       0.0000
    14  H14        0.3297     -2.0092     -1.4309  H       1  LIG       0.0000
    15  H15        2.0662     -1.2701     -0.3608  H       1  LIG       0.0000
    16  H16        1.6174     -2.4816      0.4905  H       1  LIG       0.0000
    17  H17       -1.0628     -2.2210      0.9464  H       1  LIG       0.0000
    18  H18       -0.7236     -1.4749      1.0153  H       1  LIG       0.0000
    19  H19       -1.9999     -0.0947     -0.2605  H       1  LIG       0.0000
    20  H20        0.3355     -1.2633      0.8475  H       1  LIG       0.0000
@<TRIPOS>BOND
    1     8    17  1
    2     1    10  1
    3     8    18  1
    4     8    19  1
    5     7     8  1
    6     3     4  2
    7     1    11  1
    8     1    12  1
    9     1     2  1
   10     2     3  1
   11     3     5  1
   12     2    13  1
   13     5     7  1
   14     7     9  2
   15     5     6  1
   16     9    20  1
   17     6    16  1
   18     6    14  1
   19     6    15  1
