@<TRIPOS>MOLECULE
generated_molecule
8 8 0 0 0
SMALL
NO_CHARGES

@<TRIPOS>ATOM
     1  O1         0.4472     -1.0879     -1.1878  O       1  LIG       0.0000
     2  C2        -0.7946     -0.5597     -0.5595  C       1  LIG       0.0000
     3  N3         0.8887     -0.6444     -0.4828  N       1  LIG       0.0000
     4  N4         0.2877      0.6120      0.9031  N       1  LIG       0.0000
     5  N5         0.1680     -0.2053      1.4702  N       1  LIG       0.0000
     6  N6        -0.8051      0.7312     -0.1314  N       1  LIG       0.0000
     7  H7         0.9943      0.8900     -0.7984  H       1  LIG       0.0000
     8  H8        -1.1862      0.2642      0.7866  H       1  LIG       0.0000
@<TRIPOS>BOND
    1     1     2  2
    2     2     3  ar
    3     2     6  ar
    4     3     4  ar
    5     3     7  1
    6     4     5  ar
    7     5     6  ar
    8     6     8  1
