@<TRIPOS>MOLECULE
generated_molecule
19 22 0 0 0
SMALL
NO_CHARGES

@<TRIPOS>ATOM
     1  C1        -0.6051      1.8926     -0.3077  C       1  LIG       0.0000
     2  C2        -0.3662     -0.1904      0.6285  C       1  LIG       0.0000
     3  C3         0.0033     -1.2949      0.9851  C       1  LIG       0.0000
     4  C4        -0.7800     -0.2029      1.2161  C       1  LIG       0.0000
     5  C5         0.6375      0.2802      0.4606  C       1  LIG       0.0000
     6  O6         0.5657     -0.4811     -1.0917  O       1  LIG       0.0000
     7  C7         0.2281      0.8125     -1.6926  C       1  LIG       0.0000
     8  C8         1.1347     -0.6511     -0.7209  C       1  LIG       0.0000
     9  C9         0.7247     -0.3720     -0.8745  C       1  LIG       0.0000
    10  H10       -1.5688      0.6650      0.3020  H       1  LIG       0.0000
    11  H11       -0.9055      1.8543      0.3790  H       1  LIG       0.0000
    12  H12        0.4110     -1.3142      0.0323  H       1  LIG       0.0000
    13  H13       -0.7520     -0.9529      0.8844  H       1  LIG       0.0000
    14  H14       -0.3854     -0.3873      1.8582  H       1  LIG       0.0000
    15  H15       -2.0099      0.3187      0.5118  H       1  LIG       0.0000
    16  H16        1.8735     -0.4894     -0.2030  H       1  LIG       0.0000
    17  H17        0.1188      0.8369     -1.2558  H       1  LIG       0.0000
    18  H18        2.1674      0.4017     -0.4816  H       1  LIG       0.0000
    19  H19       -0.4917     -0.7256     -0.6301  H       1  LIG       0.0000
@<TRIPOS>BOND
    1     1    11  1
    2     7    17  1
    3     9    19  1
    4     2    12  1
    5     1     7  1
    6     1     2  1
    7     1    10  1
    8     8    18  1
    9     7     8  1
   10     6     7  1
   11     2     9  1
   12     2     3  1
   13     8     9  1
   14     3     9  1
   15     5     8  1
   16     3    13  1
   17     3     4  1
   18     5     6  1
   19     5    16  1
   20     4     5  1
   21     4    15  1
   22     4    14  1
