@<TRIPOS>MOLECULE
generated_molecule
18 18 0 0 0
SMALL
NO_CHARGES

@<TRIPOS>ATOM
     1  C1        -1.0361      2.5292      0.7923  C       1  LIG       0.0000
     2  N2        -0.9752      1.6746      1.1102  N       1  LIG       0.0000
     3  C3         0.3675      0.5310      0.8050  C       1  LIG       0.0000
     4  C4         1.7026      0.0718      0.8588  C       1  LIG       0.0000
     5  C5         1.6741     -0.3620     -0.7582  C       1  LIG       0.0000
     6  C6         0.3138     -0.9396     -0.1285  C       1  LIG       0.0000
     7  O7         0.6556     -0.3190     -0.5760  O       1  LIG       0.0000
     8  C8        -0.7515     -2.5840     -0.5619  C       1  LIG       0.0000
     9  C9        -1.3564     -1.3737      0.3033  C       1  LIG       0.0000
    10  H10       -0.1209      2.6471     -0.5654  H       1  LIG       0.0000
    11  H11       -1.4755      1.3020     -0.3889  H       1  LIG       0.0000
    12  H12       -0.8200      1.3458     -0.9234  H       1  LIG       0.0000
    13  H13        1.9504      0.4186     -0.2482  H       1  LIG       0.0000
    14  H14        0.7665      0.2879      0.9832  H       1  LIG       0.0000
    15  H15        0.7539     -0.8897      0.3228  H       1  LIG       0.0000
    16  H16        0.8554     -1.2923     -0.3050  H       1  LIG       0.0000
    17  H17       -0.1490     -0.8393     -1.4782  H       1  LIG       0.0000
    18  H18       -2.3552     -2.2083      0.7580  H       1  LIG       0.0000
@<TRIPOS>BOND
    1     9    18  1
    2     8     9  3
    3     6     8  1
    4     4    13  1
    5     1    10  1
    6     1    11  1
    7     6     7  1
    8     6    17  1
    9     5     6  1
   10     3     7  1
   11     1     2  1
   12     1    12  1
   13     2     3  1
   14     3     4  1
   15     4     5  1
   16     4    14  1
   17     5    15  1
   18     5    16  1
