@<TRIPOS>MOLECULE
generated_molecule
16 17 0 0 0
SMALL
NO_CHARGES

@<TRIPOS>ATOM
     1  O1         2.1628      1.1761      0.8430  O       1  LIG       0.0000
     2  C2         0.9770      0.5664      0.2728  C       1  LIG       0.0000
     3  C3         1.6446     -0.6539     -0.4798  C       1  LIG       0.0000
     4  N4         0.5870     -0.2215     -0.4849  N       1  LIG       0.0000
     5  C5        -0.7313      0.2869     -0.8048  C       1  LIG       0.0000
     6  O6        -1.2955     -0.1280     -0.3225  O       1  LIG       0.0000
     7  C7        -2.0329     -0.5017      0.4112  C       1  LIG       0.0000
     8  O8        -0.9406      0.0734     -0.5448  O       1  LIG       0.0000
     9  C9        -0.2336      1.2804     -0.0616  C       1  LIG       0.0000
    10  H10        1.0748      2.0321      0.7348  H       1  LIG       0.0000
    11  H11        1.1200      0.6551     -0.2173  H       1  LIG       0.0000
    12  H12        1.0256     -0.9962      0.4547  H       1  LIG       0.0000
    13  H13        1.3138     -1.2603      0.9416  H       1  LIG       0.0000
    14  H14       -1.9940     -1.9831     -0.2903  H       1  LIG       0.0000
    15  H15       -2.1529     -1.8156      1.0261  H       1  LIG       0.0000
    16  H16       -0.5246      1.4900     -1.4782  H       1  LIG       0.0000
@<TRIPOS>BOND
    1     2    11  1
    2     9    16  1
    3     8     9  1
    4     7     8  1
    5     2     9  1
    6     5     9  1
    7     7    14  1
    8     1     2  1
    9     2     3  1
   10     1    10  1
   11     7    15  1
   12     6     7  1
   13     3    12  1
   14     3    13  1
   15     3     4  1
   16     5     6  1
   17     4     5  1
