@<TRIPOS>MOLECULE
generated_molecule
23 23 0 0 0
SMALL
NO_CHARGES

@<TRIPOS>ATOM
     1  C1         0.1188      3.2019      0.3341  C       1  LIG       0.0000
     2  C2         0.1720      1.9378      0.3136  C       1  LIG       0.0000
     3  C3         0.6463      0.8350      0.1223  C       1  LIG       0.0000
     4  C4         0.5028      0.3848     -0.6962  C       1  LIG       0.0000
     5  C5        -0.3629     -0.6340     -0.5121  C       1  LIG       0.0000
     6  C6        -0.1130     -0.6301      0.2881  C       1  LIG       0.0000
     7  C7        -0.1808     -2.3211     -0.6903  C       1  LIG       0.0000
     8  C8         0.8786     -1.3685      0.2120  C       1  LIG       0.0000
     9  O9         0.1351     -2.6453      0.4993  O       1  LIG       0.0000
    10  H10        0.1371      2.6640     -0.0617  H       1  LIG       0.0000
    11  H11       -1.4789      2.7109      0.5969  H       1  LIG       0.0000
    12  H12       -0.3228      2.7316     -0.8441  H       1  LIG       0.0000
    13  H13       -0.7557      1.4205      1.2027  H       1  LIG       0.0000
    14  H14        1.1503      1.7068      1.2756  H       1  LIG       0.0000
    15  H15        0.3327      1.4346     -1.2021  H       1  LIG       0.0000
    16  H16       -0.6318     -0.8242     -0.6990  H       1  LIG       0.0000
    17  H17       -1.2948     -1.6378     -0.2644  H       1  LIG       0.0000
    18  H18        0.9601     -0.1229      0.0839  H       1  LIG       0.0000
    19  H19       -0.6487     -2.0685     -0.2247  H       1  LIG       0.0000
    20  H20       -0.8263     -1.4772     -0.0470  H       1  LIG       0.0000
    21  H21        0.1775     -1.2910      0.1189  H       1  LIG       0.0000
    22  H22        0.0845     -1.7147     -0.7398  H       1  LIG       0.0000
    23  H23        1.3200     -2.2925      0.9341  H       1  LIG       0.0000
@<TRIPOS>BOND
    1     5    19  1
    2     5    18  1
    3     5    17  1
    4     4     5  1
    5     1    11  1
    6     1    10  1
    7     1    12  1
    8     1     2  1
    9     4    16  1
   10     3     4  1
   11     4     6  1
   12     2    13  1
   13     2     3  1
   14     2    14  1
   15     7    20  1
   16     3    15  1
   17     3     6  1
   18     6     7  1
   19     6     8  1
   20     7    22  1
   21     7    21  1
   22     8     9  2
   23     8    23  1
