@<TRIPOS>MOLECULE
generated_molecule
20 22 0 0 0
SMALL
NO_CHARGES

@<TRIPOS>ATOM
     1  C1        -1.0640      2.3014     -0.3211  C       1  LIG       0.0000
     2  C2        -0.5549      1.0495      0.2634  C       1  LIG       0.0000
     3  C3         1.1466      0.2924     -1.6422  C       1  LIG       0.0000
     4  O4         0.4539      0.6745     -0.5817  O       1  LIG       0.0000
     5  C5        -0.0642      0.7554      1.2258  C       1  LIG       0.0000
     6  C6        -0.6954     -1.0660      0.4804  C       1  LIG       0.0000
     7  C7         1.5328     -0.8300     -1.0118  C       1  LIG       0.0000
     8  C8         1.6129     -1.7779     -0.2511  C       1  LIG       0.0000
     9  N9         2.3536     -0.8796     -0.9651  N       1  LIG       0.0000
    10  H10       -2.4073      2.6364     -0.9132  H       1  LIG       0.0000
    11  H11       -0.6297      2.4266      0.9869  H       1  LIG       0.0000
    12  H12       -2.2400      1.5595      0.6129  H       1  LIG       0.0000
    13  H13       -1.3478      0.5703     -0.9558  H       1  LIG       0.0000
    14  H14        1.0217     -1.2165     -1.7856  H       1  LIG       0.0000
    15  H15       -1.3917     -1.0905      1.8290  H       1  LIG       0.0000
    16  H16       -0.5946     -1.6473      1.8811  H       1  LIG       0.0000
    17  H17       -1.5285      0.1246      0.1718  H       1  LIG       0.0000
    18  H18        2.4148     -1.9892      0.3470  H       1  LIG       0.0000
    19  H19        1.0749     -1.4008      1.3753  H       1  LIG       0.0000
    20  H20        0.9068     -0.4929     -0.7459  H       1  LIG       0.0000
@<TRIPOS>BOND
    1     3    14  1
    2     8    19  1
    3     1    11  1
    4     2     3  1
    5     3     7  1
    6     3     4  1
    7     2    13  1
    8     9    20  1
    9     7     8  1
   10     8     9  1
   11     8    18  1
   12     1     2  1
   13     2     5  1
   14     1    10  1
   15     1    12  1
   16     7     9  1
   17     5     7  1
   18     4     5  1
   19     5     6  1
   20     6    16  1
   21     6    15  1
   22     6    17  1
