@<TRIPOS>MOLECULE
generated_molecule
18 19 0 0 0
SMALL
NO_CHARGES

@<TRIPOS>ATOM
     1  O1         0.6485      2.8257     -0.8766  O       1  LIG       0.0000
     2  C2         1.0799      1.5305     -0.6946  C       1  LIG       0.0000
     3  C3         0.8660      0.4675      0.6000  C       1  LIG       0.0000
     4  C4         0.7238     -1.1314      0.9613  C       1  LIG       0.0000
     5  N5        -0.7280     -0.9790      0.1706  N       1  LIG       0.0000
     6  C6        -2.1483     -0.2421     -0.0980  C       1  LIG       0.0000
     7  C7        -1.4349     -1.1751      0.7340  C       1  LIG       0.0000
     8  C8        -0.0368     -2.0145     -0.1111  C       1  LIG       0.0000
     9  O9        -0.0090     -1.9824     -1.6585  O       1  LIG       0.0000
    10  H10        0.1085      1.6595     -1.4443  H       1  LIG       0.0000
    11  H11        1.3297      1.2607     -1.1938  H       1  LIG       0.0000
    12  H12        1.0068      1.0599     -1.1855  H       1  LIG       0.0000
    13  H13        1.3895      0.1946      1.7504  H       1  LIG       0.0000
    14  H14        0.5566      1.4805      0.6357  H       1  LIG       0.0000
    15  H15        0.5352     -0.7888      1.0195  H       1  LIG       0.0000
    16  H16       -1.1459     -1.2708     -0.4557  H       1  LIG       0.0000
    17  H17       -1.5111      0.9940     -0.0775  H       1  LIG       0.0000
    18  H18       -1.2304     -1.8888      1.9242  H       1  LIG       0.0000
@<TRIPOS>BOND
    1     2    11  1
    2     3    14  1
    3     4    15  1
    4     1    10  1
    5     1     2  1
    6     8     9  2
    7     2     3  1
    8     2    12  1
    9     3     4  1
   10     3    13  1
   11     4     8  1
   12     4     5  1
   13     7     8  1
   14     5     7  1
   15     5     6  1
   16     7    18  1
   17     6     7  1
   18     6    17  1
   19     6    16  1
