@<TRIPOS>MOLECULE
generated_molecule
25 25 0 0 0
SMALL
NO_CHARGES

@<TRIPOS>ATOM
     1  C1        -0.8397      2.3826     -0.6558  C       1  LIG       0.0000
     2  C2        -0.6336      1.2761      0.4958  C       1  LIG       0.0000
     3  C3         0.4921      0.4691      0.9006  C       1  LIG       0.0000
     4  C4        -0.7136     -0.5750      0.7906  C       1  LIG       0.0000
     5  C5        -0.9411      0.5305     -0.2759  C       1  LIG       0.0000
     6  C6        -0.4746     -0.8587     -0.3005  C       1  LIG       0.0000
     7  C7         0.6246     -1.9926     -0.5424  C       1  LIG       0.0000
     8  C8         1.7243     -2.2295      0.2358  C       1  LIG       0.0000
     9  C9         0.7283     -0.0959     -0.1847  C       1  LIG       0.0000
    10  H10       -0.3587      1.8327      1.0236  H       1  LIG       0.0000
    11  H11       -0.7638      0.6402     -0.7823  H       1  LIG       0.0000
    12  H12       -2.2076      2.0683     -0.6969  H       1  LIG       0.0000
    13  H13        0.4972      1.5979      1.3002  H       1  LIG       0.0000
    14  H14       -0.7429      0.7338      0.9578  H       1  LIG       0.0000
    15  H15       -0.3385      1.6916      0.4916  H       1  LIG       0.0000
    16  H16        0.7792      0.4511     -0.2203  H       1  LIG       0.0000
    17  H17       -0.5342      0.0628     -1.6562  H       1  LIG       0.0000
    18  H18        0.4474     -0.9204     -1.5520  H       1  LIG       0.0000
    19  H19       -0.9960     -2.1807     -0.6173  H       1  LIG       0.0000
    20  H20        0.2912     -0.7595     -1.8165  H       1  LIG       0.0000
    21  H21       -0.5480     -1.1741     -0.4741  H       1  LIG       0.0000
    22  H22        0.7459     -1.1501      1.1502  H       1  LIG       0.0000
    23  H23        1.9558     -1.4289      1.5495  H       1  LIG       0.0000
    24  H24        1.3801     -0.3929      0.0870  H       1  LIG       0.0000
    25  H25        0.4262      0.0215      0.7924  H       1  LIG       0.0000
@<TRIPOS>BOND
    1     5    16  1
    2     5    15  1
    3     5    17  1
    4     4     5  1
    5     6    19  1
    6     6    18  1
    7     4     6  1
    8     6     7  1
    9     3     4  2
   10     1    11  1
   11     2    13  1
   12     2     3  1
   13     3     9  1
   14     7    20  1
   15     7    21  1
   16     7     8  1
   17     1     2  1
   18     2    14  1
   19     1    10  1
   20     1    12  1
   21     8    22  1
   22     8     9  1
   23     8    23  1
   24     9    24  1
   25     9    25  1
