@<TRIPOS>MOLECULE
generated_molecule
14 16 0 0 0
SMALL
NO_CHARGES

@<TRIPOS>ATOM
     1  O1         0.6936     -2.3100      1.4411  O       1  LIG       0.0000
     2  C2        -0.3266     -1.8781      0.3464  C       1  LIG       0.0000
     3  N3        -1.0758     -1.5891     -1.0134  N       1  LIG       0.0000
     4  N4        -0.8041     -1.2509     -0.0685  N       1  LIG       0.0000
     5  C5         0.8711     -0.8866     -0.1098  C       1  LIG       0.0000
     6  C6         1.6028      1.0720     -0.3168  C       1  LIG       0.0000
     7  C7        -0.2126      1.4881      0.4785  C       1  LIG       0.0000
     8  C8         0.3908      1.1096     -0.8765  C       1  LIG       0.0000
     9  N9         0.2224     -1.0949     -0.3220  N       1  LIG       0.0000
    10  H10       -2.2482     -0.6502     -1.1022  H       1  LIG       0.0000
    11  H11        1.2654      1.7546      0.8856  H       1  LIG       0.0000
    12  H12       -0.3301      0.2576      1.2268  H       1  LIG       0.0000
    13  H13        0.0085      2.7283      0.2399  H       1  LIG       0.0000
    14  H14       -0.0572      1.2495     -0.8092  H       1  LIG       0.0000
@<TRIPOS>BOND
    1     3    10  1
    2     2     9  1
    3     5     9  1
    4     8     9  1
    5     2     3  1
    6     3     4  1
    7     1     2  2
    8     8    14  1
    9     4     5  1
   10     5     6  1
   11     6    11  1
   12     6     8  1
   13     7     8  1
   14     6     7  1
   15     7    12  1
   16     7    13  1
