@<TRIPOS>MOLECULE
generated_molecule
14 15 0 0 0
SMALL
NO_CHARGES

@<TRIPOS>ATOM
     1  O1         0.3412     -2.6657      0.9386  O       1  LIG       0.0000
     2  C2        -0.2720     -1.2726      1.3455  C       1  LIG       0.0000
     3  O3        -1.2919     -1.2832      0.6131  O       1  LIG       0.0000
     4  C4        -1.5942     -0.3635     -0.7852  C       1  LIG       0.0000
     5  C5        -0.3540     -0.4852     -0.2343  C       1  LIG       0.0000
     6  O6        -0.3217      0.4519     -0.0477  O       1  LIG       0.0000
     7  C7         0.9071      0.4190      0.5515  C       1  LIG       0.0000
     8  C8         0.2694     -0.3935     -0.4501  C       1  LIG       0.0000
     9  H9        -0.7565      1.2739     -0.3814  H       1  LIG       0.0000
    10  H10       -1.0149      0.6130     -1.1188  H       1  LIG       0.0000
    11  H11        0.3791      0.8268     -0.4469  H       1  LIG       0.0000
    12  H12        1.6067      1.6254      0.3495  H       1  LIG       0.0000
    13  H13        0.4579      1.9560      0.6084  H       1  LIG       0.0000
    14  H14        1.6438     -0.7024     -0.9420  H       1  LIG       0.0000
@<TRIPOS>BOND
    1     8    14  1
    2     4     9  1
    3     5    11  1
    4     2     8  1
    5     5     8  1
    6     7     8  1
    7     1     2  2
    8     2     3  1
    9     4     5  1
   10     5     6  1
   11     3     4  1
   12     4    10  1
   13     7    12  1
   14     6     7  1
   15     7    13  1
