@<TRIPOS>MOLECULE
generated_molecule
17 19 0 0 0
SMALL
NO_CHARGES

@<TRIPOS>ATOM
     1  C1         0.1628      2.5895      0.2324  C       1  LIG       0.0000
     2  C2         0.8486      0.2135      0.7020  C       1  LIG       0.0000
     3  C3         0.0809      0.2045     -1.1953  C       1  LIG       0.0000
     4  C4         0.5599     -0.9751     -0.9664  C       1  LIG       0.0000
     5  N5        -1.0584     -1.4321      0.4624  N       1  LIG       0.0000
     6  C6        -1.4960     -1.0719      1.2037  C       1  LIG       0.0000
     7  O7        -0.4260     -1.2342      1.8411  O       1  LIG       0.0000
     8  N8        -0.0145      0.4761      0.2272  N       1  LIG       0.0000
     9  C9         0.0065     -1.5747      0.2451  C       1  LIG       0.0000
    10  H10        0.1193      2.0802     -0.1733  H       1  LIG       0.0000
    11  H11       -0.7413      2.0446     -0.1299  H       1  LIG       0.0000
    12  H12        0.2627      2.6712      0.7093  H       1  LIG       0.0000
    13  H13        1.4104      0.4952     -1.1363  H       1  LIG       0.0000
    14  H14        0.6753      0.3396     -2.5838  H       1  LIG       0.0000
    15  H15        0.1876     -1.7207     -0.3602  H       1  LIG       0.0000
    16  H16       -0.1245     -2.1180     -0.1380  H       1  LIG       0.0000
    17  H17       -0.4533     -0.9877      1.0599  H       1  LIG       0.0000
@<TRIPOS>BOND
    1     3    13  1
    2     4    15  1
    3     3    14  1
    4     3     4  1
    5     2     3  1
    6     1    11  1
    7     4     9  1
    8     4     5  1
    9     2     9  1
   10     1     2  1
   11     2     8  1
   12     9    17  1
   13     8     9  1
   14     1    10  1
   15     1    12  1
   16     5    16  1
   17     5     6  1
   18     6     8  1
   19     6     7  2
