@<TRIPOS>MOLECULE
generated_molecule
21 21 0 0 0
SMALL
NO_CHARGES

@<TRIPOS>ATOM
     1  C1         0.5458      2.8071      1.3626  C       1  LIG       0.0000
     2  C2         0.0245      1.2537      1.6371  C       1  LIG       0.0000
     3  C3         0.3717     -0.4174      0.8164  C       1  LIG       0.0000
     4  C4         0.6081      0.8475     -1.4665  C       1  LIG       0.0000
     5  C5         0.5250     -0.5678     -1.7109  C       1  LIG       0.0000
     6  O6         0.5748     -2.5442     -0.9709  O       1  LIG       0.0000
     7  C7         0.0398     -1.6959     -0.8615  C       1  LIG       0.0000
     8  C8        -1.2085     -1.8464      0.2249  C       1  LIG       0.0000
     9  C9         0.7231     -0.0588     -0.7950  C       1  LIG       0.0000
    10  H10       -0.7575      2.4017      0.8193  H       1  LIG       0.0000
    11  H11        1.5747      1.8442      1.7945  H       1  LIG       0.0000
    12  H12        1.6746      1.9975      0.1181  H       1  LIG       0.0000
    13  H13       -0.9877      0.1716      1.9666  H       1  LIG       0.0000
    14  H14       -1.2131      1.4629      0.5497  H       1  LIG       0.0000
    15  H15        1.1693     -1.2001     -0.5880  H       1  LIG       0.0000
    16  H16       -1.7074     -1.0448     -0.8419  H       1  LIG       0.0000
    17  H17       -0.7013     -0.9309      0.2009  H       1  LIG       0.0000
    18  H18       -1.1233     -3.2554      0.0085  H       1  LIG       0.0000
    19  H19       -0.1327     -0.2059     -0.2641  H       1  LIG       0.0000
    20  H20        1.3251      1.3349     -0.6294  H       1  LIG       0.0000
    21  H21       -1.3248     -0.3537     -1.3705  H       1  LIG       0.0000
@<TRIPOS>BOND
    1     5     6  1
    2     6     7  1
    3     2    13  1
    4     1    11  1
    5     8    18  1
    6     8    16  1
    7     2     3  1
    8     1     2  1
    9     2    14  1
   10     1    10  1
   11     3     4  3
   12     1    12  1
   13     4     5  1
   14     5     7  1
   15     5    15  1
   16     7     8  1
   17     8    17  1
   18     7     9  1
   19     9    19  1
   20     9    21  1
   21     9    20  1
