@<TRIPOS>MOLECULE
generated_molecule
17 17 0 0 0
SMALL
NO_CHARGES

@<TRIPOS>ATOM
     1  O1        -0.2491     -0.8212      1.2629  O       1  LIG       0.0000
     2  C2         0.0784     -1.4200      1.1099  C       1  LIG       0.0000
     3  C3         0.5588     -2.1457     -0.0480  C       1  LIG       0.0000
     4  C4         0.4280      0.1102     -0.0004  C       1  LIG       0.0000
     5  C5         0.6291      0.4926     -0.6054  C       1  LIG       0.0000
     6  C6        -0.1860      0.5214      0.3959  C       1  LIG       0.0000
     7  C7         0.5320      1.0963     -1.0558  C       1  LIG       0.0000
     8  O8        -0.6428      0.5934      0.2414  O       1  LIG       0.0000
     9  C9         0.4390      0.8064      1.4231  C       1  LIG       0.0000
    10  H10       -0.7046     -0.8855      0.8324  H       1  LIG       0.0000
    11  H11       -0.1850     -1.2159     -0.5727  H       1  LIG       0.0000
    12  H12        1.9278     -1.0017     -0.7043  H       1  LIG       0.0000
    13  H13       -0.2190      1.9700     -0.3817  H       1  LIG       0.0000
    14  H14       -0.4373      1.2279     -1.7357  H       1  LIG       0.0000
    15  H15       -0.9656      0.8971     -1.2318  H       1  LIG       0.0000
    16  H16       -0.2368      0.9171      0.0504  H       1  LIG       0.0000
    17  H17       -0.7668     -1.1422      1.0199  H       1  LIG       0.0000
@<TRIPOS>BOND
    1     9    17  1
    2     6    13  1
    3     8     9  1
    4     6     9  1
    5     9    16  1
    6     7     8  1
    7     7    14  1
    8     6     7  1
    9     5     6  1
   10     7    15  1
   11     4     5  3
   12     2    10  1
   13     3     4  1
   14     1     2  2
   15     2     3  1
   16     3    12  1
   17     3    11  1
