@<TRIPOS>MOLECULE
generated_molecule
16 16 0 0 0
SMALL
NO_CHARGES

@<TRIPOS>ATOM
     1  O1        -0.3416      0.9780      1.1162  O       1  LIG       0.0000
     2  C2         0.1199     -0.2277     -0.1837  C       1  LIG       0.0000
     3  C3        -0.2201      0.9552      0.5919  C       1  LIG       0.0000
     4  C4        -1.3114      0.0769      0.1702  C       1  LIG       0.0000
     5  C5         0.2616     -0.2830     -1.7073  C       1  LIG       0.0000
     6  C6        -0.1461     -0.2967     -1.3663  C       1  LIG       0.0000
     7  N7         0.2260      0.4092     -2.6254  N       1  LIG       0.0000
     8  C8         1.1928     -0.1442     -0.0766  C       1  LIG       0.0000
     9  C9         1.5010     -2.0117      0.7814  C       1  LIG       0.0000
    10  H10        0.2007      2.1649      0.4627  H       1  LIG       0.0000
    11  H11       -1.4874      0.1635      0.8786  H       1  LIG       0.0000
    12  H12       -1.5038      1.1880      0.8227  H       1  LIG       0.0000
    13  H13       -0.6810     -0.7620      1.3189  H       1  LIG       0.0000
    14  H14       -0.4858     -1.2151      0.1028  H       1  LIG       0.0000
    15  H15        0.0378      0.1473     -1.4937  H       1  LIG       0.0000
    16  H16        2.6375     -1.1429      1.2075  H       1  LIG       0.0000
@<TRIPOS>BOND
    1     9    16  1
    2     8     9  3
    3     6     7  3
    4     2     8  1
    5     1    10  1
    6     5     6  1
    7     5    15  1
    8     2     5  1
    9     4     5  1
   10     1     2  1
   11     2     3  1
   12     3    11  1
   13     3     4  1
   14     3    12  1
   15     4    14  1
   16     4    13  1
