@<TRIPOS>MOLECULE
generated_molecule
15 15 0 0 0
SMALL
NO_CHARGES

@<TRIPOS>ATOM
     1  O1        -0.3896     -1.8231      0.6898  O       1  LIG       0.0000
     2  C2        -0.9796     -0.0840      0.3756  C       1  LIG       0.0000
     3  C3        -0.5457      0.5634     -0.8106  C       1  LIG       0.0000
     4  C4        -0.6225     -0.4282      0.1612  C       1  LIG       0.0000
     5  O5         1.1020      0.1544      1.0612  O       1  LIG       0.0000
     6  C6         1.4962     -0.7624      0.1305  C       1  LIG       0.0000
     7  O7         1.3940      0.3277     -0.7374  O       1  LIG       0.0000
     8  O8         2.0418      1.1623      0.8155  O       1  LIG       0.0000
     9  C9         0.7835      1.4290     -0.3490  C       1  LIG       0.0000
    10  H10       -1.8097     -1.0258      0.2877  H       1  LIG       0.0000
    11  H11       -0.8813      1.0034     -0.5207  H       1  LIG       0.0000
    12  H12       -0.7390     -0.3041     -0.0330  H       1  LIG       0.0000
    13  H13        0.0973     -1.3451     -0.3123  H       1  LIG       0.0000
    14  H14       -0.8977      0.6393     -0.4253  H       1  LIG       0.0000
    15  H15       -0.0497      0.4932     -0.3332  H       1  LIG       0.0000
@<TRIPOS>BOND
    1     4    12  1
    2     4    13  1
    3     4     5  1
    4     3     4  1
    5     5     6  1
    6     3    11  1
    7     1     2  2
    8     2     3  1
    9     3     9  1
   10     2    10  1
   11     6     7  2
   12     6     8  1
   13     8     9  1
   14     9    14  1
   15     9    15  1
