@<TRIPOS>MOLECULE
generated_molecule
11 10 0 0 0
SMALL
NO_CHARGES

@<TRIPOS>ATOM
     1  C1         1.3389      0.3564     -0.1290  C       1  LIG       0.0000
     2  C2        -0.0459     -0.3048      0.8722  C       1  LIG       0.0000
     3  O3         0.4061     -1.7919      0.7567  O       1  LIG       0.0000
     4  C4        -0.8412     -0.4249     -1.1857  C       1  LIG       0.0000
     5  O5        -2.0227      0.3001     -0.3701  O       1  LIG       0.0000
     6  H6         1.9318      1.2031      0.9826  H       1  LIG       0.0000
     7  H7         0.6156      1.1193     -0.8584  H       1  LIG       0.0000
     8  H8         1.1857      0.1305      0.6927  H       1  LIG       0.0000
     9  H9        -1.8174     -0.7094     -0.0639  H       1  LIG       0.0000
    10  H10        0.3025     -0.6709     -0.6962  H       1  LIG       0.0000
    11  H11       -1.0533      0.7925     -0.0011  H       1  LIG       0.0000
@<TRIPOS>BOND
    1     1     2  1
    2     1     6  1
    3     1     7  1
    4     1     8  1
    5     2     3  2
    6     2     4  1
    7     4     5  1
    8     4     9  1
    9     4    10  1
   10     5    11  1
