@<TRIPOS>MOLECULE
generated_molecule
17 20 0 0 0
SMALL
NO_CHARGES

@<TRIPOS>ATOM
     1  C1        -0.3994      1.2595      0.1096  C       1  LIG       0.0000
     2  C2         0.7479      0.7649     -1.3760  C       1  LIG       0.0000
     3  C3         0.8234     -0.6628     -1.0299  C       1  LIG       0.0000
     4  C4         0.4293     -0.3723     -0.2451  C       1  LIG       0.0000
     5  C5        -0.4274     -0.3890     -0.4990  C       1  LIG       0.0000
     6  N6         0.2915     -0.1341      0.3441  N       1  LIG       0.0000
     7  C7        -0.0451     -0.0964      1.2016  C       1  LIG       0.0000
     8  C8        -0.7947     -1.4651      0.9690  C       1  LIG       0.0000
     9  N9        -1.5247     -0.1013      0.5379  N       1  LIG       0.0000
    10  H10       -1.7274      0.6787     -0.1955  H       1  LIG       0.0000
    11  H11       -0.7543      1.4534     -0.9856  H       1  LIG       0.0000
    12  H12        1.1315      1.7384     -0.8970  H       1  LIG       0.0000
    13  H13        1.9078     -0.9559      0.0172  H       1  LIG       0.0000
    14  H14       -1.7678      0.0202      0.0741  H       1  LIG       0.0000
    15  H15        1.1106     -0.6858     -1.0104  H       1  LIG       0.0000
    16  H16        0.4982      0.2163      1.7362  H       1  LIG       0.0000
    17  H17        0.5004     -1.2689      1.2488  H       1  LIG       0.0000
@<TRIPOS>BOND
    1     1    11  1
    2     2    12  1
    3     1     9  1
    4     1     2  1
    5     1    10  1
    6     4     9  1
    7     8     9  1
    8     2     3  2
    9     5    14  1
   10     3     4  1
   11     3    13  1
   12     4     5  1
   13     4     7  1
   14     8    17  1
   15     5     8  1
   16     7     8  1
   17     5     6  1
   18     6     7  1
   19     7    16  1
   20     6    15  1
