@<TRIPOS>MOLECULE
generated_molecule
20 20 0 0 0
SMALL
NO_CHARGES

@<TRIPOS>ATOM
     1  C1        -0.4869      2.3401      1.1230  C       1  LIG       0.0000
     2  C2         1.0266      1.7084      0.5306  C       1  LIG       0.0000
     3  C3         0.8778      0.6274     -0.1815  C       1  LIG       0.0000
     4  N4         1.1231     -0.3859     -1.5355  N       1  LIG       0.0000
     5  C5         0.3505     -0.7119     -0.5537  C       1  LIG       0.0000
     6  C6         0.6009     -1.9513      0.5945  C       1  LIG       0.0000
     7  O7        -0.5232     -1.8374      0.2892  O       1  LIG       0.0000
     8  C8        -2.2782     -1.0782      0.6432  C       1  LIG       0.0000
     9  O9        -2.1854     -2.6920      0.8753  O       1  LIG       0.0000
    10  H10       -0.5493      1.2497      1.0303  H       1  LIG       0.0000
    11  H11       -0.7863      2.9642      0.0746  H       1  LIG       0.0000
    12  H12       -0.5364      3.3664      0.0046  H       1  LIG       0.0000
    13  H13        0.9290      0.5586      1.5071  H       1  LIG       0.0000
    14  H14       -0.2438      2.1759     -0.1684  H       1  LIG       0.0000
    15  H15        0.7060      1.0272     -0.8384  H       1  LIG       0.0000
    16  H16        0.6104     -1.2153     -2.0857  H       1  LIG       0.0000
    17  H17        1.0303     -2.0401     -0.7050  H       1  LIG       0.0000
    18  H18        1.0051     -2.0854     -0.8532  H       1  LIG       0.0000
    19  H19        1.6367     -0.7898      1.1756  H       1  LIG       0.0000
    20  H20       -2.3069     -1.2307     -0.9265  H       1  LIG       0.0000
@<TRIPOS>BOND
    1     5    17  1
    2     3    15  1
    3     4    16  1
    4     3     5  1
    5     4     5  1
    6     5     6  1
    7     3     4  1
    8     2     3  1
    9     6    19  1
   10     6     7  1
   11     7     8  1
   12     1    11  1
   13     6    18  1
   14     2    14  1
   15     8     9  2
   16     1     2  1
   17     2    13  1
   18     8    20  1
   19     1    10  1
   20     1    12  1
