@<TRIPOS>MOLECULE
generated_molecule
15 14 0 0 0
SMALL
NO_CHARGES

@<TRIPOS>ATOM
     1  C1        -1.5377      1.3714      0.2827  C       1  LIG       0.0000
     2  C2         0.5521      1.2580      0.6901  C       1  LIG       0.0000
     3  O3         0.1216     -0.1709      0.2613  O       1  LIG       0.0000
     4  N4         0.2915      0.5163     -0.3602  N       1  LIG       0.0000
     5  C5         1.4992     -1.0388      0.2168  C       1  LIG       0.0000
     6  O6         0.4422     -1.8750      0.3541  O       1  LIG       0.0000
     7  C7         0.2768     -0.8903     -0.2420  C       1  LIG       0.0000
     8  O8        -1.5357     -2.1117      0.1029  O       1  LIG       0.0000
     9  H9        -1.0796      1.7209     -0.3813  H       1  LIG       0.0000
    10  H10       -1.3755      1.6944     -1.1669  H       1  LIG       0.0000
    11  H11        0.1231      1.6992     -1.0526  H       1  LIG       0.0000
    12  H12        1.2100      1.5987      0.1783  H       1  LIG       0.0000
    13  H13        1.0942     -1.5437      0.7337  H       1  LIG       0.0000
    14  H14       -0.3622     -1.1925      0.4065  H       1  LIG       0.0000
    15  H15        0.2800     -1.0359     -0.0234  H       1  LIG       0.0000
@<TRIPOS>BOND
    1     1    10  1
    2     7    14  1
    3     5     6  2
    4     2     3  2
    5     7     8  1
    6     8    15  1
    7     4     5  1
    8     5     7  1
    9     2     4  1
   10     1     2  1
   11     1     9  1
   12     4    12  1
   13     1    11  1
   14     7    13  1
