@<TRIPOS>MOLECULE
generated_molecule
20 22 0 0 0
SMALL
NO_CHARGES

@<TRIPOS>ATOM
     1  C1         1.2694      2.0527      0.7223  C       1  LIG       0.0000
     2  C2         0.0349      0.7359      0.6196  C       1  LIG       0.0000
     3  O3         1.3575      0.6170      1.8550  O       1  LIG       0.0000
     4  C4        -0.8958     -0.4394     -0.1991  C       1  LIG       0.0000
     5  N5        -0.1306      0.4626      0.8206  N       1  LIG       0.0000
     6  C6        -0.8438     -1.0618      1.1194  C       1  LIG       0.0000
     7  C7        -1.1423     -1.6894     -0.9551  C       1  LIG       0.0000
     8  C8         0.5509     -1.8083     -1.4972  C       1  LIG       0.0000
     9  C9         0.0083     -0.9123     -0.7524  C       1  LIG       0.0000
    10  H10        0.6819      2.5070     -0.1656  H       1  LIG       0.0000
    11  H11        0.0631      2.1706     -0.4967  H       1  LIG       0.0000
    12  H12       -0.0263      1.8746     -0.8747  H       1  LIG       0.0000
    13  H13       -0.2507      0.8963      1.5804  H       1  LIG       0.0000
    14  H14        0.8910      0.2145      0.9124  H       1  LIG       0.0000
    15  H15       -1.4485      0.5410      1.5763  H       1  LIG       0.0000
    16  H16        0.2240     -1.9502      0.7166  H       1  LIG       0.0000
    17  H17       -1.4341     -0.3929     -1.6248  H       1  LIG       0.0000
    18  H18        1.7861     -1.1623     -0.8766  H       1  LIG       0.0000
    19  H19       -0.9521     -2.6521     -0.5614  H       1  LIG       0.0000
    20  H20        0.2571     -0.0036     -1.9190  H       1  LIG       0.0000
@<TRIPOS>BOND
    1     5    15  1
    2     1    11  1
    3     1    12  1
    4     5     6  1
    5     4     5  1
    6     6    16  1
    7     1    10  1
    8     1     2  1
    9     4     6  1
   10     6     7  1
   11     8    19  1
   12     2     4  1
   13     4     9  1
   14     2    13  1
   15     2     3  1
   16     7     8  1
   17     7    17  1
   18     7     9  1
   19     8     9  1
   20     8    18  1
   21     9    20  1
   22     3    14  1
