@<TRIPOS>MOLECULE
generated_molecule
20 22 0 0 0
SMALL
NO_CHARGES

@<TRIPOS>ATOM
     1  C1        -1.0112      2.7133     -1.3897  C       1  LIG       0.0000
     2  O2        -0.7290      1.6511     -0.7868  O       1  LIG       0.0000
     3  C3        -0.3816      0.4885     -0.4520  C       1  LIG       0.0000
     4  C4         0.4480      0.2466      0.9969  C       1  LIG       0.0000
     5  C5         0.9218     -1.0923      1.0608  C       1  LIG       0.0000
     6  N6         1.1508      0.1243     -0.1351  N       1  LIG       0.0000
     7  C7        -0.3295     -1.0585     -0.7392  C       1  LIG       0.0000
     8  C8        -0.5718     -2.1446      0.8183  C       1  LIG       0.0000
     9  C9         0.2951     -2.4385      0.3570  C       1  LIG       0.0000
    10  H10       -0.1830      3.6031     -1.0921  H       1  LIG       0.0000
    11  H11       -0.5789      3.3999     -0.6845  H       1  LIG       0.0000
    12  H12       -0.0692      2.1131     -2.4217  H       1  LIG       0.0000
    13  H13       -1.5310      0.5028     -0.5381  H       1  LIG       0.0000
    14  H14        0.8901      1.3955      1.7507  H       1  LIG       0.0000
    15  H15        0.0758     -0.6550      1.1008  H       1  LIG       0.0000
    16  H16        0.2329     -0.5042      2.2168  H       1  LIG       0.0000
    17  H17        1.0463     -1.9941      0.1810  H       1  LIG       0.0000
    18  H18       -0.9283     -0.7022      0.7086  H       1  LIG       0.0000
    19  H19        1.4207     -2.2477     -0.3527  H       1  LIG       0.0000
    20  H20       -0.1677     -3.4012     -0.5989  H       1  LIG       0.0000
@<TRIPOS>BOND
    1     9    20  1
    2     9    19  1
    3     7     9  1
    4     8     9  1
    5     3    13  1
    6     6     7  1
    7     7     8  1
    8     3     7  1
    9     4     6  1
   10     5     6  1
   11     8    17  1
   12     8    18  1
   13     3     4  1
   14     2     3  1
   15     4    14  1
   16     4     5  1
   17     1    11  1
   18     1     2  1
   19     5    15  1
   20     5    16  1
   21     1    10  1
   22     1    12  1
