@<TRIPOS>MOLECULE
generated_molecule
21 23 0 0 0
SMALL
NO_CHARGES

@<TRIPOS>ATOM
     1  C1         0.3915      0.9502      0.4838  C       1  LIG       0.0000
     2  C2        -0.6454      0.4304     -0.5945  C       1  LIG       0.0000
     3  C3         0.5473     -0.3706     -0.9938  C       1  LIG       0.0000
     4  C4         0.2009      0.0065      0.5134  C       1  LIG       0.0000
     5  C5         0.3654     -1.0791      0.0797  C       1  LIG       0.0000
     6  C6        -1.1208     -1.0659      0.8878  C       1  LIG       0.0000
     7  C7        -1.1163      0.0466     -0.4564  C       1  LIG       0.0000
     8  C8         0.3814     -0.1151     -1.3074  C       1  LIG       0.0000
     9  C9         0.1938      0.4583     -0.7542  C       1  LIG       0.0000
    10  H10       -0.1135     -0.5137     -0.1073  H       1  LIG       0.0000
    11  H11        0.3021      2.1707     -0.3300  H       1  LIG       0.0000
    12  H12       -0.3302      0.9539      0.9907  H       1  LIG       0.0000
    13  H13       -0.1235     -0.2329      0.9164  H       1  LIG       0.0000
    14  H14        0.2865     -1.0411     -0.5445  H       1  LIG       0.0000
    15  H15        0.8863     -0.9706      0.1249  H       1  LIG       0.0000
    16  H16       -0.0362     -1.7850      1.4735  H       1  LIG       0.0000
    17  H17        0.1457     -1.6356      0.6783  H       1  LIG       0.0000
    18  H18       -1.5412      0.6713      0.6181  H       1  LIG       0.0000
    19  H19        0.0862     -0.2611      0.5022  H       1  LIG       0.0000
    20  H20        0.8699      1.6726     -0.8667  H       1  LIG       0.0000
    21  H21        0.3701      1.7103     -1.3141  H       1  LIG       0.0000
@<TRIPOS>BOND
    1     1    11  1
    2     4    15  1
    3     1    10  1
    4     1     9  1
    5     1     2  1
    6     9    21  1
    7     2    12  1
    8     4     5  1
    9     4     8  1
   10     3     4  1
   11     8     9  1
   12     9    20  1
   13     2     3  1
   14     2    13  1
   15     5    16  1
   16     5     6  2
   17     3     8  1
   18     7     8  1
   19     3    14  1
   20     7    18  1
   21     6     7  1
   22     6    17  1
   23     7    19  1
