@<TRIPOS>MOLECULE
generated_molecule
15 17 0 0 0
SMALL
NO_CHARGES

@<TRIPOS>ATOM
     1  O1         0.0882      2.0486     -0.6772  O       1  LIG       0.0000
     2  C2        -0.2304      1.0263     -0.2016  C       1  LIG       0.0000
     3  C3         1.4255      0.8437      1.0929  C       1  LIG       0.0000
     4  O4         0.3417     -0.0136      0.4860  O       1  LIG       0.0000
     5  C5         0.2763     -1.3863      1.0558  C       1  LIG       0.0000
     6  C6        -0.6863     -0.2187     -1.0109  C       1  LIG       0.0000
     7  C7        -1.2022     -0.5703     -0.7829  C       1  LIG       0.0000
     8  C8         0.2487     -2.2516      0.2348  C       1  LIG       0.0000
     9  O9         0.5982     -1.8693     -1.2649  O       1  LIG       0.0000
    10  H10        0.3286      2.0434     -0.2283  H       1  LIG       0.0000
    11  H11        1.8553      1.4752      0.2273  H       1  LIG       0.0000
    12  H12        2.0389      0.3616      0.2553  H       1  LIG       0.0000
    13  H13       -1.0749     -1.7919      1.0095  H       1  LIG       0.0000
    14  H14       -2.0543      0.0565     -0.3742  H       1  LIG       0.0000
    15  H15       -1.9532      0.2464      0.1784  H       1  LIG       0.0000
@<TRIPOS>BOND
    1     3    11  1
    2     3     4  1
    3     4     5  1
    4     3    12  1
    5     2     3  1
    6     5    13  1
    7     5     6  1
    8     5     8  1
    9     6    14  1
   10     1     2  1
   11     2     6  1
   12     2     7  1
   13     1    10  1
   14     6     7  1
   15     7     8  1
   16     8     9  2
   17     7    15  1
