@<TRIPOS>MOLECULE
generated_molecule
23 23 0 0 0
SMALL
NO_CHARGES

@<TRIPOS>ATOM
     1  C1        -0.5171      2.6257      0.9634  C       1  LIG       0.0000
     2  C2         0.3256      1.0658      0.3000  C       1  LIG       0.0000
     3  C3         1.3613     -0.3715      0.7275  C       1  LIG       0.0000
     4  C4         1.0458     -0.5171      1.6790  C       1  LIG       0.0000
     5  C5         0.6473     -2.1741     -0.2184  C       1  LIG       0.0000
     6  C6        -0.6797     -2.6209     -1.0085  C       1  LIG       0.0000
     7  C7        -1.4281     -0.4773     -1.7771  C       1  LIG       0.0000
     8  C8        -1.9682      0.5319     -0.2270  C       1  LIG       0.0000
     9  O9        -1.5580     -0.0019      0.2050  O       1  LIG       0.0000
    10  H10        0.2421      1.7483      0.1831  H       1  LIG       0.0000
    11  H11        0.3064      1.7505      0.1924  H       1  LIG       0.0000
    12  H12       -0.2094      2.2025     -0.9928  H       1  LIG       0.0000
    13  H13        1.5266      0.5388      0.8701  H       1  LIG       0.0000
    14  H14        1.0355      0.0069     -0.0655  H       1  LIG       0.0000
    15  H15        0.1352      0.2857     -0.2947  H       1  LIG       0.0000
    16  H16        0.6955     -0.2969      0.9975  H       1  LIG       0.0000
    17  H17        1.1075     -1.1578      1.3883  H       1  LIG       0.0000
    18  H18        1.1042     -1.7448     -1.1159  H       1  LIG       0.0000
    19  H19        0.4445     -1.6835     -0.5927  H       1  LIG       0.0000
    20  H20       -0.9123     -0.9851     -0.3472  H       1  LIG       0.0000
    21  H21       -1.1489     -0.5671     -1.0963  H       1  LIG       0.0000
    22  H22       -0.2460      0.7471      0.9902  H       1  LIG       0.0000
    23  H23       -1.3098      1.0947     -0.7605  H       1  LIG       0.0000
@<TRIPOS>BOND
    1     5    18  1
    2     4    16  1
    3     2    13  1
    4     3    15  1
    5     1    11  1
    6     4     5  1
    7     5     6  2
    8     3     4  1
    9     4    17  1
   10     6    19  1
   11     2     3  1
   12     3     9  1
   13     1     2  1
   14     2    14  1
   15     6     7  1
   16     1    10  1
   17     1    12  1
   18     8    22  1
   19     8     9  1
   20     7     8  1
   21     8    23  1
   22     7    20  1
   23     7    21  1
