@<TRIPOS>MOLECULE
generated_molecule
20 20 0 0 0
SMALL
NO_CHARGES

@<TRIPOS>ATOM
     1  C1         0.2862      2.2441      1.2930  C       1  LIG       0.0000
     2  C2         0.8597      0.6812      0.5982  C       1  LIG       0.0000
     3  C3        -0.7452      0.2771      0.3953  C       1  LIG       0.0000
     4  N4        -0.7791     -0.3971     -1.3548  N       1  LIG       0.0000
     5  C5         0.0692     -1.1885     -1.3165  C       1  LIG       0.0000
     6  C6        -0.4186     -1.0353      0.5254  C       1  LIG       0.0000
     7  N7        -0.6717     -2.2872     -0.2893  N       1  LIG       0.0000
     8  C8        -1.6141      1.6186      0.8214  C       1  LIG       0.0000
     9  N9        -0.4085      2.5749      0.3756  N       1  LIG       0.0000
    10  H10        1.6010      2.2503      0.6337  H       1  LIG       0.0000
    11  H11        0.2995      2.3397      2.0532  H       1  LIG       0.0000
    12  H12        0.5865      3.0837      0.3326  H       1  LIG       0.0000
    13  H13        1.6703      0.9569     -0.6242  H       1  LIG       0.0000
    14  H14        0.8695     -0.1937      0.7988  H       1  LIG       0.0000
    15  H15       -1.8818     -0.2751     -2.1865  H       1  LIG       0.0000
    16  H16        1.4813     -1.6804     -1.0185  H       1  LIG       0.0000
    17  H17       -0.3491     -2.2122     -2.1272  H       1  LIG       0.0000
    18  H18       -1.5702     -1.5102      0.7930  H       1  LIG       0.0000
    19  H19       -0.1376     -2.9868      0.0541  H       1  LIG       0.0000
    20  H20        0.8527     -2.2602      0.2429  H       1  LIG       0.0000
@<TRIPOS>BOND
    1     8     9  3
    2     3     8  1
    3     5    16  1
    4     6    18  1
    5     5     6  1
    6     3     6  1
    7     6     7  1
    8     4     5  1
    9     5    17  1
   10     3     4  1
   11     2     3  1
   12     4    15  1
   13     1    11  1
   14     2    14  1
   15     7    19  1
   16     1     2  1
   17     2    13  1
   18     7    20  1
   19     1    10  1
   20     1    12  1
