@<TRIPOS>MOLECULE
generated_molecule
19 20 0 0 0
SMALL
NO_CHARGES

@<TRIPOS>ATOM
     1  C1        -0.6910      1.4629      0.8765  C       1  LIG       0.0000
     2  C2        -0.8517      0.3325      0.1593  C       1  LIG       0.0000
     3  C3        -0.2994      0.9688      1.1967  C       1  LIG       0.0000
     4  O4         1.1807      0.5760      0.8078  O       1  LIG       0.0000
     5  C5         0.2521     -0.4346      0.1783  C       1  LIG       0.0000
     6  O6         1.0697     -1.3776      0.6626  O       1  LIG       0.0000
     7  C7         0.5646     -1.1364     -1.5533  C       1  LIG       0.0000
     8  O8         0.6657     -0.2027     -1.0963  O       1  LIG       0.0000
     9  C9        -0.1639     -1.1820     -0.1800  C       1  LIG       0.0000
    10  H10       -1.9329      1.2950     -0.0657  H       1  LIG       0.0000
    11  H11       -0.1793      1.3306     -0.7243  H       1  LIG       0.0000
    12  H12       -0.7650      2.3547     -0.4256  H       1  LIG       0.0000
    13  H13       -1.8103     -0.7359      0.0622  H       1  LIG       0.0000
    14  H14       -0.1333     -0.5953      1.1488  H       1  LIG       0.0000
    15  H15        1.0884      1.3286      1.1184  H       1  LIG       0.0000
    16  H16        1.7150     -0.7658      1.5485  H       1  LIG       0.0000
    17  H17        0.9064     -1.3877     -0.8944  H       1  LIG       0.0000
    18  H18        0.6173     -0.3165     -2.6425  H       1  LIG       0.0000
    19  H19       -1.2334     -1.5146     -0.1769  H       1  LIG       0.0000
@<TRIPOS>BOND
    1     4    15  1
    2     3     4  1
    3     3    14  1
    4     1    11  1
    5     2     3  1
    6     3     5  1
    7     6    16  1
    8     1     2  1
    9     1    10  1
   10     1    12  1
   11     7    18  1
   12     2    13  1
   13     2     9  1
   14     5     6  1
   15     5     7  1
   16     5     9  1
   17     7    17  1
   18     7     8  1
   19     8     9  1
   20     9    19  1
