@<TRIPOS>MOLECULE
generated_molecule
14 14 0 0 0
SMALL
NO_CHARGES

@<TRIPOS>ATOM
     1  O1         0.1162      0.6160      0.7315  O       1  LIG       0.0000
     2  C2        -1.4560      0.6791      0.5927  C       1  LIG       0.0000
     3  N3        -0.6076      0.4212     -1.0911  N       1  LIG       0.0000
     4  C4         0.4935      1.2907     -0.7341  C       1  LIG       0.0000
     5  C5         1.2615      0.1202     -0.6641  C       1  LIG       0.0000
     6  C6         0.7757     -0.9259      0.8982  C       1  LIG       0.0000
     7  O7         1.9282     -0.2215      0.2304  O       1  LIG       0.0000
     8  C8        -0.4509     -1.2759      0.6044  C       1  LIG       0.0000
     9  O9        -0.9679      0.0568     -0.4876  O       1  LIG       0.0000
    10  H10       -0.2265     -1.0709     -0.9289  H       1  LIG       0.0000
    11  H11        0.2683      0.0080     -0.7604  H       1  LIG       0.0000
    12  H12        1.4396      0.8684      0.6243  H       1  LIG       0.0000
    13  H13       -1.8969     -0.8078      0.0214  H       1  LIG       0.0000
    14  H14       -0.6772      0.2417      0.9634  H       1  LIG       0.0000
@<TRIPOS>BOND
    1     8    13  1
    2     8    14  1
    3     6     8  1
    4     8     9  1
    5     6     7  2
    6     5     6  1
    7     5    12  1
    8     4     5  2
    9     3     4  1
   10     3    10  1
   11     2     3  1
   12     2     9  1
   13     4    11  1
   14     1     2  2
