@<TRIPOS>MOLECULE
generated_molecule
19 18 0 0 0
SMALL
NO_CHARGES

@<TRIPOS>ATOM
     1  C1         0.9851      2.5003      0.7250  C       1  LIG       0.0000
     2  C2         0.7920      0.3623     -0.2416  C       1  LIG       0.0000
     3  C3        -0.4604     -0.0819     -0.7935  C       1  LIG       0.0000
     4  C4         1.5043     -0.2023      0.2371  C       1  LIG       0.0000
     5  C5         0.6849     -0.8659     -0.5440  C       1  LIG       0.0000
     6  C6        -0.6128     -0.5634      0.5883  C       1  LIG       0.0000
     7  O7         0.7851     -0.3333      0.8057  O       1  LIG       0.0000
     8  C8        -1.0866     -1.2178     -1.4034  C       1  LIG       0.0000
     9  C9        -0.7019     -1.0221     -1.8688  C       1  LIG       0.0000
    10  H10       -0.4531      1.8895      1.3253  H       1  LIG       0.0000
    11  H11        0.6887      1.8596     -0.6201  H       1  LIG       0.0000
    12  H12       -1.0943      2.8734      0.7337  H       1  LIG       0.0000
    13  H13        1.0303     -1.6063      0.6025  H       1  LIG       0.0000
    14  H14        0.4159     -0.2227     -0.5003  H       1  LIG       0.0000
    15  H15       -1.2211      0.1716     -0.0382  H       1  LIG       0.0000
    16  H16       -0.5112     -1.5390      1.7065  H       1  LIG       0.0000
    17  H17       -0.4607     -1.4568      1.0370  H       1  LIG       0.0000
    18  H18        1.0520      1.3323      0.0653  H       1  LIG       0.0000
    19  H19       -1.3361     -1.8775     -1.8164  H       1  LIG       0.0000
@<TRIPOS>BOND
    1     6    17  1
    2     6    16  1
    3     6     7  1
    4     5     6  1
    5     7    18  1
    6     4    13  1
    7     1    11  1
    8     3     4  1
    9     4     5  1
   10     4    14  1
   11     2     3  3
   12     5     8  1
   13     5    15  1
   14     1     2  1
   15     1    12  1
   16     1    10  1
   17     8     9  3
   18     9    19  1
