@<TRIPOS>MOLECULE
generated_molecule
16 15 0 0 0
SMALL
NO_CHARGES

@<TRIPOS>ATOM
     1  N1        -0.6102     -1.3502      0.8329  N       1  LIG       0.0000
     2  C2         1.7946     -0.9496      0.9054  C       1  LIG       0.0000
     3  O3        -0.3069      0.5779      1.0541  O       1  LIG       0.0000
     4  C4         0.7671      1.5100      0.4843  C       1  LIG       0.0000
     5  C5         0.5676      0.8268     -1.2944  C       1  LIG       0.0000
     6  C6        -0.5187     -0.0297      0.3731  C       1  LIG       0.0000
     7  C7        -0.6276     -1.0755     -0.9347  C       1  LIG       0.0000
     8  C8        -2.6120     -1.9763     -0.4195  C       1  LIG       0.0000
     9  O9        -1.4544     -1.5978      1.1910  O       1  LIG       0.0000
    10  H10        0.1343     -0.9210     -0.7705  H       1  LIG       0.0000
    11  H11        1.6703      0.4011      0.0385  H       1  LIG       0.0000
    12  H12        0.5551      2.0172     -0.1669  H       1  LIG       0.0000
    13  H13        0.2757      1.1275     -0.4587  H       1  LIG       0.0000
    14  H14        1.5619      1.2930     -0.5209  H       1  LIG       0.0000
    15  H15        1.1350      0.4309     -0.8362  H       1  LIG       0.0000
    16  H16       -2.3318     -0.2843      0.5227  H       1  LIG       0.0000
@<TRIPOS>BOND
    1     4    12  1
    2     5    15  1
    3     8    16  1
    4     8     9  2
    5     7     8  1
    6     2    11  1
    7     6     7  3
    8     3     4  1
    9     4     5  1
   10     4    13  1
   11     5     6  1
   12     2     3  1
   13     1     2  1
   14     1    10  1
   15     5    14  1
