@<TRIPOS>MOLECULE
generated_molecule
21 22 0 0 0
SMALL
NO_CHARGES

@<TRIPOS>ATOM
     1  C1        -0.4824      1.8675     -0.1059  C       1  LIG       0.0000
     2  C2        -0.8465      0.7605     -0.3976  C       1  LIG       0.0000
     3  C3        -0.1917     -0.8208     -1.1011  C       1  LIG       0.0000
     4  O4         0.9916     -0.9830      0.5652  O       1  LIG       0.0000
     5  C5         0.6698      0.0456      0.3991  C       1  LIG       0.0000
     6  C6         0.3530      0.2960      0.9477  C       1  LIG       0.0000
     7  C7        -0.1603     -1.2028      0.3196  C       1  LIG       0.0000
     8  C8         0.4878     -1.4431     -0.4428  C       1  LIG       0.0000
     9  O9        -0.3850     -1.9194      0.2490  O       1  LIG       0.0000
    10  H10        0.3484      2.0568     -1.0984  H       1  LIG       0.0000
    11  H11       -1.6664      2.3645     -0.3547  H       1  LIG       0.0000
    12  H12       -0.0466      2.7106     -0.0655  H       1  LIG       0.0000
    13  H13       -2.0443      0.3032      0.3590  H       1  LIG       0.0000
    14  H14        0.1488      0.3104     -1.4731  H       1  LIG       0.0000
    15  H15        1.1721     -0.5732     -1.6731  H       1  LIG       0.0000
    16  H16        1.6000      0.9541      1.2300  H       1  LIG       0.0000
    17  H17        1.1767      0.8382      2.0493  H       1  LIG       0.0000
    18  H18       -0.6601     -0.4614     -0.5534  H       1  LIG       0.0000
    19  H19       -0.4113     -1.9443      1.0203  H       1  LIG       0.0000
    20  H20        1.1632     -2.1994      0.6031  H       1  LIG       0.0000
    21  H21       -1.2168     -0.9600     -0.4767  H       1  LIG       0.0000
@<TRIPOS>BOND
    1     3    14  1
    2     3    15  1
    3     1    11  1
    4     2     3  1
    5     3     4  1
    6     2    13  1
    7     1     2  1
    8     2     5  1
    9     1    10  1
   10     1    12  1
   11     4     5  1
   12     5     7  1
   13     5     6  1
   14     8    19  1
   15     8    18  1
   16     7     8  1
   17     7     9  1
   18     6     7  1
   19     8    20  1
   20     9    21  1
   21     6    17  1
   22     6    16  1
