@<TRIPOS>MOLECULE
generated_molecule
19 19 0 0 0
SMALL
NO_CHARGES

@<TRIPOS>ATOM
     1  C1        -1.3024     -0.2174     -0.4443  C       1  LIG       0.0000
     2  C2        -1.5183      0.3225      1.1409  C       1  LIG       0.0000
     3  C3        -1.3329     -0.4974      1.3977  C       1  LIG       0.0000
     4  C4        -0.3489     -0.5380      0.4272  C       1  LIG       0.0000
     5  C5        -0.5736     -0.2686     -1.2298  C       1  LIG       0.0000
     6  C6         0.3882      0.0167     -0.8534  C       1  LIG       0.0000
     7  O7         0.8998      1.5333     -0.7718  O       1  LIG       0.0000
     8  C8         1.4852      0.1264      0.5669  C       1  LIG       0.0000
     9  C9         0.9512     -0.3201      0.5855  C       1  LIG       0.0000
    10  H10       -1.3214      0.4969     -0.8521  H       1  LIG       0.0000
    11  H11       -1.1531     -1.4406      0.5516  H       1  LIG       0.0000
    12  H12       -2.0630     -0.4637      0.0942  H       1  LIG       0.0000
    13  H13       -0.0359     -0.9758     -1.1363  H       1  LIG       0.0000
    14  H14       -0.3220     -0.4873     -2.0847  H       1  LIG       0.0000
    15  H15        0.8657      0.3345     -0.2172  H       1  LIG       0.0000
    16  H16        0.9825      0.1849      2.1448  H       1  LIG       0.0000
    17  H17        1.4000      1.0620      1.1190  H       1  LIG       0.0000
    18  H18        2.0578     -0.1075     -0.0436  H       1  LIG       0.0000
    19  H19        0.9413      1.2390     -0.3946  H       1  LIG       0.0000
@<TRIPOS>BOND
    1     5    13  1
    2     6    14  1
    3     6    15  1
    4     5     6  1
    5     4     5  2
    6     3    11  1
    7     6     7  1
    8     3     4  1
    9     2     3  1
   10     3    12  1
   11     4     9  1
   12     7     8  1
   13     1     2  3
   14     1    10  1
   15     8    16  1
   16     8     9  1
   17     8    17  1
   18     9    19  1
   19     9    18  1
