@<TRIPOS>MOLECULE
generated_molecule
19 20 0 0 0
SMALL
NO_CHARGES

@<TRIPOS>ATOM
     1  C1        -0.1699      1.3112     -0.3725  C       1  LIG       0.0000
     2  C2        -0.5003      0.2828     -0.7798  C       1  LIG       0.0000
     3  C3         0.3600     -0.3739     -1.3201  C       1  LIG       0.0000
     4  C4         1.9394     -0.8427     -0.5237  C       1  LIG       0.0000
     5  C5         0.7951     -1.5014      0.1878  C       1  LIG       0.0000
     6  N6         0.3825     -1.3220      1.3832  N       1  LIG       0.0000
     7  C7         0.4647      0.3701      0.9213  C       1  LIG       0.0000
     8  C8        -1.9158     -0.0614      0.0380  C       1  LIG       0.0000
     9  N9        -2.2904      0.8318      0.3618  N       1  LIG       0.0000
    10  H10       -1.2936      1.5546      0.0327  H       1  LIG       0.0000
    11  H11        0.3582      2.1443      0.4997  H       1  LIG       0.0000
    12  H12       -0.9811      1.1915      0.7749  H       1  LIG       0.0000
    13  H13        0.3100      1.0061     -1.9005  H       1  LIG       0.0000
    14  H14        1.0864     -0.3628     -2.3736  H       1  LIG       0.0000
    15  H15        1.2363     -0.3536     -1.6015  H       1  LIG       0.0000
    16  H16        1.1370     -1.9625     -1.1415  H       1  LIG       0.0000
    17  H17       -0.0690     -1.6296      1.9802  H       1  LIG       0.0000
    18  H18        0.2031     -0.5330      2.2223  H       1  LIG       0.0000
    19  H19       -1.0524      0.2505      1.6115  H       1  LIG       0.0000
@<TRIPOS>BOND
    1     3    13  1
    2     3    14  1
    3     4    16  1
    4     3     4  1
    5     2     3  1
    6     4    15  1
    7     1    11  1
    8     4     5  1
    9     8     9  3
   10     2     8  1
   11     1     2  1
   12     2     7  1
   13     1    10  1
   14     1    12  1
   15     5     6  1
   16     5     7  1
   17     5    17  1
   18     6     7  1
   19     6    18  1
   20     7    19  1
