@<TRIPOS>MOLECULE
generated_molecule
18 19 0 0 0
SMALL
NO_CHARGES

@<TRIPOS>ATOM
     1  O1         1.7016      2.0749     -0.4526  O       1  LIG       0.0000
     2  N2         0.9453      1.8521      0.1881  N       1  LIG       0.0000
     3  C3        -0.2060      0.9013     -0.3499  C       1  LIG       0.0000
     4  C4         0.1893      1.0960      0.8859  C       1  LIG       0.0000
     5  C5        -0.2301     -0.4623      0.6042  C       1  LIG       0.0000
     6  C6        -0.6047     -2.0330      0.3043  C       1  LIG       0.0000
     7  C7         0.5563     -1.5153     -0.3911  C       1  LIG       0.0000
     8  O8         1.4788     -0.6728     -1.1279  O       1  LIG       0.0000
     9  C9        -1.7258      0.1664     -0.2012  C       1  LIG       0.0000
    10  H10        1.6817      1.0695     -0.7667  H       1  LIG       0.0000
    11  H11        0.6865      1.6830      0.8762  H       1  LIG       0.0000
    12  H12       -0.4352      1.7440      1.2380  H       1  LIG       0.0000
    13  H13       -0.6656     -2.6113      0.9754  H       1  LIG       0.0000
    14  H14       -1.4726     -1.3995      1.2739  H       1  LIG       0.0000
    15  H15        0.0279     -1.4952     -1.7072  H       1  LIG       0.0000
    16  H16        2.0164     -0.4692      0.5927  H       1  LIG       0.0000
    17  H17       -2.2300      0.3318     -0.5892  H       1  LIG       0.0000
    18  H18       -1.7138     -0.2608     -1.3528  H       1  LIG       0.0000
@<TRIPOS>BOND
    1     8    16  1
    2     7     8  1
    3     7    15  1
    4     5     7  1
    5     6     7  1
    6     4    12  1
    7     9    17  1
    8     5     6  1
    9     4     5  1
   10     5     9  1
   11     6    14  1
   12     6    13  1
   13     3     4  1
   14     4    11  1
   15     3     9  1
   16     9    18  1
   17     2     3  1
   18     1     2  1
   19     1    10  1
