@<TRIPOS>MOLECULE
generated_molecule
20 22 0 0 0
SMALL
NO_CHARGES

@<TRIPOS>ATOM
     1  C1         0.0251      2.3967      0.6273  C       1  LIG       0.0000
     2  C2         0.6279      1.2042     -0.0110  C       1  LIG       0.0000
     3  C3         0.3710      0.4015     -0.5277  C       1  LIG       0.0000
     4  N4        -0.8400     -0.8451      1.3985  N       1  LIG       0.0000
     5  C5        -0.8845     -1.5243      0.7421  C       1  LIG       0.0000
     6  C6         0.6884     -0.8588     -0.1431  C       1  LIG       0.0000
     7  C7         0.1644     -0.7658     -1.3852  C       1  LIG       0.0000
     8  O8         0.7849      0.8360     -0.9242  O       1  LIG       0.0000
     9  C9        -0.3298     -0.5255      0.6179  C       1  LIG       0.0000
    10  H10       -0.7556      2.5210      0.6539  H       1  LIG       0.0000
    11  H11        0.4670      2.7961      0.9993  H       1  LIG       0.0000
    12  H12        1.3901      2.8723      0.2492  H       1  LIG       0.0000
    13  H13       -0.9216     -0.2551     -1.0033  H       1  LIG       0.0000
    14  H14        0.6101     -0.1054     -1.9034  H       1  LIG       0.0000
    15  H15       -1.0952     -2.7537      0.7409  H       1  LIG       0.0000
    16  H16       -1.2389     -2.4690      0.1714  H       1  LIG       0.0000
    17  H17        0.5420     -1.8786      0.8558  H       1  LIG       0.0000
    18  H18        0.5739     -0.1283     -0.4049  H       1  LIG       0.0000
    19  H19        0.9311     -0.4307     -2.3305  H       1  LIG       0.0000
    20  H20       -1.1104     -0.4876      1.5769  H       1  LIG       0.0000
@<TRIPOS>BOND
    1     3    13  1
    2     3    14  1
    3     3     4  1
    4     2     3  1
    5     4     5  1
    6     4     9  1
    7     5    15  1
    8     1    11  1
    9     5    16  1
   10     5     6  1
   11     9    20  1
   12     2     9  1
   13     6     9  1
   14     1     2  1
   15     2     8  1
   16     1    10  1
   17     1    12  1
   18     6    17  1
   19     6     7  1
   20     7     8  1
   21     7    19  1
   22     7    18  1
