@<TRIPOS>MOLECULE
generated_molecule
22 22 0 0 0
SMALL
NO_CHARGES

@<TRIPOS>ATOM
     1  C1         0.3826     -1.1002     -1.3180  C       1  LIG       0.0000
     2  C2        -0.8160     -0.3378     -0.8633  C       1  LIG       0.0000
     3  C3         0.5799     -0.5640     -0.2632  C       1  LIG       0.0000
     4  C4        -0.2521      0.4408      0.7772  C       1  LIG       0.0000
     5  C5         0.6585      0.0913      0.7191  C       1  LIG       0.0000
     6  C6         0.4538      0.8454      2.0869  C       1  LIG       0.0000
     7  C7         1.3371      0.6531      1.2019  C       1  LIG       0.0000
     8  N8         1.7007     -0.3828      1.3167  N       1  LIG       0.0000
     9  O9        -0.3066     -0.9277      0.4273  O       1  LIG       0.0000
    10  H10       -0.5810      0.1244     -0.9871  H       1  LIG       0.0000
    11  H11       -1.1211     -1.1615     -1.0929  H       1  LIG       0.0000
    12  H12        0.0628     -0.3009     -1.6666  H       1  LIG       0.0000
    13  H13       -0.2230     -1.1239     -1.3154  H       1  LIG       0.0000
    14  H14        0.3906     -0.8221     -0.2744  H       1  LIG       0.0000
    15  H15        0.4724      0.0519     -1.7963  H       1  LIG       0.0000
    16  H16       -0.6991     -0.1887      0.3927  H       1  LIG       0.0000
    17  H17       -0.2243      1.2255      0.8357  H       1  LIG       0.0000
    18  H18       -1.0421      0.0895      1.0872  H       1  LIG       0.0000
    19  H19        0.5549      1.8454      0.1780  H       1  LIG       0.0000
    20  H20       -0.8558      1.0956      0.4531  H       1  LIG       0.0000
    21  H21       -0.1394      1.7936      0.6521  H       1  LIG       0.0000
    22  H22       -0.3330     -1.3469     -0.5509  H       1  LIG       0.0000
@<TRIPOS>BOND
    1     1    11  1
    2     2    13  1
    3     3    14  1
    4     1     2  1
    5     1    12  1
    6     1    10  1
    7     2     3  1
    8     2     4  1
    9     3    15  1
   10     3     4  1
   11     4    16  1
   12     4     5  1
   13     5    17  1
   14     5    18  1
   15     5     6  1
   16     6     8  2
   17     6     7  1
   18     8     9  1
   19     7    19  1
   20     7    21  1
   21     7    20  1
   22     9    22  1
