@<TRIPOS>MOLECULE
generated_molecule
13 14 0 0 0
SMALL
NO_CHARGES

@<TRIPOS>ATOM
     1  N1         0.9459      2.3961      1.0983  N       1  LIG       0.0000
     2  C2         0.9164      0.8084      0.5261  C       1  LIG       0.0000
     3  O3         0.9581      0.0219      0.4861  O       1  LIG       0.0000
     4  C4         0.8001     -1.1923      0.6421  C       1  LIG       0.0000
     5  C5        -0.5917     -0.3199      1.1541  C       1  LIG       0.0000
     6  C6         0.8762     -0.2662      0.1284  C       1  LIG       0.0000
     7  C7        -0.3112      1.5093     -1.1638  C       1  LIG       0.0000
     8  C8        -1.4451      0.4596     -2.6735  C       1  LIG       0.0000
     9  H9         1.4533      3.0806     -0.2921  H       1  LIG       0.0000
    10  H10        0.1036     -2.3595      0.0331  H       1  LIG       0.0000
    11  H11       -1.3362     -1.2629      0.4110  H       1  LIG       0.0000
    12  H12       -0.9613     -1.6372      0.5516  H       1  LIG       0.0000
    13  H13       -1.4081     -1.2379     -0.9013  H       1  LIG       0.0000
@<TRIPOS>BOND
    1     8    13  1
    2     7     8  3
    3     6     7  1
    4     4    10  1
    5     4     6  1
    6     2     6  1
    7     5     6  1
    8     3     4  1
    9     4     5  1
   10     1     2  1
   11     1     9  1
   12     2     3  1
   13     5    11  1
   14     5    12  1
