@<TRIPOS>MOLECULE
generated_molecule
17 18 0 0 0
SMALL
NO_CHARGES

@<TRIPOS>ATOM
     1  O1         0.8946     -2.5178     -0.7502  O       1  LIG       0.0000
     2  C2         0.7449     -1.7506      0.4552  C       1  LIG       0.0000
     3  C3        -0.2905     -0.2165     -0.7681  C       1  LIG       0.0000
     4  C4         0.6033      0.7116     -0.6179  C       1  LIG       0.0000
     5  C5        -1.4052      1.1159      0.2976  C       1  LIG       0.0000
     6  C6        -0.6501      0.9620      0.3454  C       1  LIG       0.0000
     7  C7         0.3617     -0.0456      2.3148  C       1  LIG       0.0000
     8  C8         0.8919     -0.3228      1.0574  C       1  LIG       0.0000
     9  O9         0.9233     -1.0552     -0.8861  O       1  LIG       0.0000
    10  H10       -1.8545     -1.1440     -0.9380  H       1  LIG       0.0000
    11  H11       -1.1266     -0.6571     -1.8099  H       1  LIG       0.0000
    12  H12        0.2128      1.3718     -1.9076  H       1  LIG       0.0000
    13  H13       -0.9919      0.2814      0.1665  H       1  LIG       0.0000
    14  H14       -0.0426      1.7555     -0.0798  H       1  LIG       0.0000
    15  H15       -0.3957      0.1212      1.3093  H       1  LIG       0.0000
    16  H16        0.9546      1.0073      2.0867  H       1  LIG       0.0000
    17  H17        1.1701      0.3828     -0.2754  H       1  LIG       0.0000
@<TRIPOS>BOND
    1     8    17  1
    2     1     2  2
    3     2     9  1
    4     8     9  1
    5     2     3  1
    6     4    12  1
    7     3    10  1
    8     4     8  1
    9     7     8  1
   10     3     4  1
   11     3    11  1
   12     4     5  1
   13     7    16  1
   14     6     7  2
   15     5    13  1
   16     5     6  1
   17     5    14  1
   18     6    15  1
