@<TRIPOS>MOLECULE
generated_molecule
15 15 0 0 0
SMALL
NO_CHARGES

@<TRIPOS>ATOM
     1  O1        -1.3956     -0.9542     -1.6669  O       1  LIG       0.0000
     2  C2        -1.3862     -1.2750     -0.9575  C       1  LIG       0.0000
     3  O3         0.3113     -3.2317     -0.1732  O       1  LIG       0.0000
     4  C4        -1.2898      0.6937     -1.0585  C       1  LIG       0.0000
     5  C5        -0.0371     -0.1936     -0.1954  C       1  LIG       0.0000
     6  N6         0.6870      0.3744     -0.5874  N       1  LIG       0.0000
     7  C7         0.2038      1.2030      0.3722  C       1  LIG       0.0000
     8  N8         1.0811      1.7793      1.7851  N       1  LIG       0.0000
     9  H9         0.4085      0.5086      1.2962  H       1  LIG       0.0000
    10  H10        0.5295      0.1855      2.0225  H       1  LIG       0.0000
    11  C11       -0.8434      1.2525     -0.0175  C       1  LIG       0.0000
    12  H12        0.9749     -1.3061      0.2047  H       1  LIG       0.0000
    13  H13        1.2735     -0.9830     -0.4391  H       1  LIG       0.0000
    14  H14        0.2332      1.8598     -0.1354  H       1  LIG       0.0000
    15  H15       -0.7506      0.0869     -0.4499  H       1  LIG       0.0000
@<TRIPOS>BOND
    1    11    15  1
    2     2     3  1
    3     1     2  2
    4     2     4  1
    5     4    11  1
    6     4     5  2
    7     7    11  1
    8    11    14  1
    9     5    12  1
   10     5     6  1
   11     6     7  1
   12     7     8  1
   13     6    13  1
   14     8    10  1
   15     8     9  1
