@<TRIPOS>MOLECULE
generated_molecule
16 16 0 0 0
SMALL
NO_CHARGES

@<TRIPOS>ATOM
     1  C1        -0.4989      1.3114     -1.0778  C       1  LIG       0.0000
     2  C2         0.1152      1.1274     -0.6172  C       1  LIG       0.0000
     3  N3        -0.6312      0.2615     -0.6033  N       1  LIG       0.0000
     4  C4        -0.7852     -0.9224      0.3167  C       1  LIG       0.0000
     5  C5        -0.5069     -2.3563      0.6738  C       1  LIG       0.0000
     6  C6        -0.0296     -0.2008      1.3177  C       1  LIG       0.0000
     7  O7         1.1752     -0.4149      0.0877  O       1  LIG       0.0000
     8  N8         0.1390      0.6773      1.0630  N       1  LIG       0.0000
     9  H9        -1.7348      1.8969     -0.5332  H       1  LIG       0.0000
    10  H10       -0.0736      2.4542     -0.9484  H       1  LIG       0.0000
    11  H11        0.3763      1.9541     -1.7177  H       1  LIG       0.0000
    12  H12        0.1046     -1.6898     -0.1770  H       1  LIG       0.0000
    13  H13        0.8452     -1.9759      1.2295  H       1  LIG       0.0000
    14  H14        0.9061     -2.5200      1.0361  H       1  LIG       0.0000
    15  H15        0.9667     -0.6449     -1.4301  H       1  LIG       0.0000
    16  H16       -0.3681      1.0423      1.3801  H       1  LIG       0.0000
@<TRIPOS>BOND
    1     5    14  1
    2     5    13  1
    3     5    12  1
    4     4     5  1
    5     3     4  ar
    6     2     3  ar
    7     1    10  1
    8     4     6  ar
    9     1     2  1
   10     2     8  ar
   11     1     9  1
   12     1    11  1
   13     6     8  ar
   14     6     7  1
   15     8    16  1
   16     7    15  1
