@<TRIPOS>MOLECULE
generated_molecule
20 20 0 0 0
SMALL
NO_CHARGES

@<TRIPOS>ATOM
     1  C1         0.2678      1.1617     -0.4547  C       1  LIG       0.0000
     2  C2        -0.5824      0.5402      0.2501  C       1  LIG       0.0000
     3  C3        -0.6358      0.0899     -0.7496  C       1  LIG       0.0000
     4  O4        -1.2058     -0.6408     -0.4423  O       1  LIG       0.0000
     5  C5        -0.4683      0.1871     -0.4582  C       1  LIG       0.0000
     6  C6        -0.4058     -0.5409      0.7948  C       1  LIG       0.0000
     7  C7         0.9920     -0.1195      0.7972  C       1  LIG       0.0000
     8  O8         1.0759     -1.2895      0.3790  O       1  LIG       0.0000
     9  H9        -0.0798      2.3228     -1.0403  H       1  LIG       0.0000
    10  H10        0.8208      1.1426      0.2182  H       1  LIG       0.0000
    11  H11       -0.1066      1.7038     -0.7920  H       1  LIG       0.0000
    12  H12        0.8398     -0.0029      0.1088  H       1  LIG       0.0000
    13  H13        0.1942     -0.8441      0.1115  H       1  LIG       0.0000
    14  H14       -0.6351      1.3062     -1.0567  H       1  LIG       0.0000
    15  H15       -1.7818     -1.6835     -1.2137  H       1  LIG       0.0000
    16  H16       -1.2706     -0.1123      0.9205  H       1  LIG       0.0000
    17  H17        0.6907     -1.3955      0.2032  H       1  LIG       0.0000
    18  H18        0.5071     -0.0208      1.8191  H       1  LIG       0.0000
    19  H19        0.1521     -1.8577      0.7167  H       1  LIG       0.0000
    20  H20        1.6315      0.0532     -0.1117  H       1  LIG       0.0000
@<TRIPOS>BOND
    1     4    15  1
    2     3     4  1
    3     3    14  1
    4     3    13  1
    5     2     3  1
    6     1    10  1
    7     2    12  1
    8     1     2  1
    9     2     5  1
   10     1     9  1
   11     1    11  1
   12     8    20  1
   13     7     8  1
   14     5    16  1
   15     5     7  1
   16     5     6  1
   17     7    19  1
   18     6     7  1
   19     6    18  1
   20     6    17  1
