@<TRIPOS>MOLECULE
generated_molecule
18 22 0 0 0
SMALL
NO_CHARGES

@<TRIPOS>ATOM
     1  C1        -0.0331      0.8043      0.7241  C       1  LIG       0.0000
     2  C2        -0.4277      0.5847      0.4339  C       1  LIG       0.0000
     3  N3        -1.8266     -0.7083      0.6467  N       1  LIG       0.0000
     4  C4        -0.3261     -1.1530      0.2458  C       1  LIG       0.0000
     5  C5         0.4703      0.5765     -0.0350  C       1  LIG       0.0000
     6  C6         0.2816      0.2511     -0.8651  C       1  LIG       0.0000
     7  C7        -1.5508     -0.3968      0.0065  C       1  LIG       0.0000
     8  C8        -0.9910     -0.1921     -0.4921  C       1  LIG       0.0000
     9  C9         0.2338      0.4982     -0.6742  C       1  LIG       0.0000
    10  H10        1.0712      1.4809     -0.0298  H       1  LIG       0.0000
    11  H11        0.0139     -0.4623     -0.2066  H       1  LIG       0.0000
    12  H12        0.0282     -0.5671      1.2971  H       1  LIG       0.0000
    13  H13        0.5085     -0.8263      0.0809  H       1  LIG       0.0000
    14  H14        1.1632      0.0731      0.1498  H       1  LIG       0.0000
    15  H15        1.6058      0.7463     -1.3544  H       1  LIG       0.0000
    16  H16       -0.9454      0.4321      0.2887  H       1  LIG       0.0000
    17  H17       -0.5010     -1.3015      0.5426  H       1  LIG       0.0000
    18  H18        1.2252      0.1601     -0.7589  H       1  LIG       0.0000
@<TRIPOS>BOND
    1     6    15  1
    2     7    17  1
    3     6     7  1
    4     5     6  1
    5     6     9  1
    6     5    14  1
    7     7    16  1
    8     7     8  1
    9     5     8  1
   10     4     5  1
   11     8     9  1
   12     4     9  1
   13     9    18  1
   14     4    13  1
   15     2     8  1
   16     3     4  1
   17     1    11  1
   18     2     3  1
   19     1     2  1
   20     2    12  1
   21     1     3  1
   22     1    10  1
