@<TRIPOS>MOLECULE
generated_molecule
14 16 0 0 0
SMALL
NO_CHARGES

@<TRIPOS>ATOM
     1  N1        -1.5550     -2.6702      0.7283  N       1  LIG       0.0000
     2  C2        -1.1674     -1.0164      0.9991  C       1  LIG       0.0000
     3  C3        -1.1068     -0.4103     -0.2356  C       1  LIG       0.0000
     4  C4         0.4086     -0.7515     -0.3048  C       1  LIG       0.0000
     5  O5         0.7075      1.0766     -0.0608  O       1  LIG       0.0000
     6  C6        -0.2790      0.1900      0.3343  C       1  LIG       0.0000
     7  C7         0.9346      1.2180      0.2881  C       1  LIG       0.0000
     8  O8        -0.0592      0.7249     -1.0437  O       1  LIG       0.0000
     9  C9        -0.4514     -0.9593      0.4311  C       1  LIG       0.0000
    10  H10        0.5420     -0.7956     -1.1929  H       1  LIG       0.0000
    11  H11        0.4853      0.7412      1.2058  H       1  LIG       0.0000
    12  H12       -0.2398      2.1351      0.4932  H       1  LIG       0.0000
    13  H13        0.9376      1.9929     -0.8673  H       1  LIG       0.0000
    14  H14        0.8431     -1.4753     -0.7747  H       1  LIG       0.0000
@<TRIPOS>BOND
    1     7    13  1
    2     7     8  1
    3     8     9  1
    4     7    12  1
    5     6     7  1
    6     9    14  1
    7     3     9  1
    8     4     9  1
    9     3     6  1
   10     6    11  1
   11     5     6  1
   12     2     3  1
   13     3     4  1
   14     1     2  3
   15     4     5  1
   16     4    10  1
