@<TRIPOS>MOLECULE
generated_molecule
15 15 0 0 0
SMALL
NO_CHARGES

@<TRIPOS>ATOM
     1  C1        -0.1039      1.7814      0.7516  C       1  LIG       0.0000
     2  N2        -0.6216      0.3066      1.2346  N       1  LIG       0.0000
     3  C3         0.7924      0.9911      0.7343  C       1  LIG       0.0000
     4  O4         2.0080      1.8047      0.1513  O       1  LIG       0.0000
     5  C5        -0.2903     -0.6932     -0.5569  C       1  LIG       0.0000
     6  C6        -0.2824     -1.1606     -1.5832  C       1  LIG       0.0000
     7  N7        -0.5914     -2.7716     -0.8405  N       1  LIG       0.0000
     8  N8        -0.2043     -2.3829      1.3485  N       1  LIG       0.0000
     9  N9         0.2789     -1.4268      1.2207  N       1  LIG       0.0000
    10  H10       -0.9291      1.9656      0.2705  H       1  LIG       0.0000
    11  H11        0.1914      1.7727     -0.7511  H       1  LIG       0.0000
    12  H12       -0.9863      1.5901     -0.0957  H       1  LIG       0.0000
    13  H13        1.5611      1.7146     -0.3472  H       1  LIG       0.0000
    14  H14       -0.8575     -0.9817     -0.1453  H       1  LIG       0.0000
    15  H15        0.0350     -2.5099     -1.3915  H       1  LIG       0.0000
@<TRIPOS>BOND
    1     7    15  1
    2     7     8  ar
    3     6     7  ar
    4     6    14  1
    5     8     9  ar
    6     5     6  ar
    7     5     9  ar
    8     2     5  1
    9     1    11  1
   10     1    10  1
   11     1     2  1
   12     2     3  1
   13     1    12  1
   14     3    13  1
   15     3     4  2
