@<TRIPOS>MOLECULE
generated_molecule
18 21 0 0 0
SMALL
NO_CHARGES

@<TRIPOS>ATOM
     1  C1         0.2504      1.2300     -0.8976  C       1  LIG       0.0000
     2  C2        -1.3765     -0.2834     -0.7015  C       1  LIG       0.0000
     3  C3        -0.4801     -0.6399      0.2723  C       1  LIG       0.0000
     4  C4        -0.7619     -0.2346      1.4595  C       1  LIG       0.0000
     5  C5         0.6181     -1.4094      0.5239  C       1  LIG       0.0000
     6  C6        -0.0131     -0.0336      0.3464  C       1  LIG       0.0000
     7  N7         0.3276     -2.0899     -0.2266  N       1  LIG       0.0000
     8  C8         0.4425      0.6050      0.8219  C       1  LIG       0.0000
     9  C9         1.4186      1.7405     -0.1562  C       1  LIG       0.0000
    10  H10       -0.0870      0.2518     -0.1759  H       1  LIG       0.0000
    11  H11        1.5283     -0.0597     -0.2927  H       1  LIG       0.0000
    12  H12       -1.0214      0.2344     -1.5226  H       1  LIG       0.0000
    13  H13       -0.3404     -0.4133     -0.6403  H       1  LIG       0.0000
    14  H14       -1.5923     -1.1173     -0.5340  H       1  LIG       0.0000
    15  H15        0.3313      0.9551      0.8755  H       1  LIG       0.0000
    16  H16       -0.4625     -0.9036      0.4804  H       1  LIG       0.0000
    17  H17        1.0583      0.6318     -0.4208  H       1  LIG       0.0000
    18  H18        0.1601      1.5362      0.7882  H       1  LIG       0.0000
@<TRIPOS>BOND
    1     5    16  1
    2     4    15  1
    3     4     5  1
    4     5     7  1
    5     5     6  1
    6     3     4  1
    7     4     8  1
    8     3    14  1
    9     3     7  1
   10     2     3  1
   11     1    11  1
   12     6     8  1
   13     8     9  1
   14     6     7  1
   15     6    17  1
   16     2    12  1
   17     1     2  1
   18     2    13  1
   19     1     9  1
   20     1    10  1
   21     9    18  1
