@<TRIPOS>MOLECULE
generated_molecule
20 20 0 0 0
SMALL
NO_CHARGES

@<TRIPOS>ATOM
     1  N1        -0.4407     -1.9315     -2.0217  N       1  LIG       0.0000
     2  C2         0.7584     -2.4321     -0.8393  C       1  LIG       0.0000
     3  C3         0.6066     -1.5313     -0.0212  C       1  LIG       0.0000
     4  C4        -0.1138      0.0082     -0.0679  C       1  LIG       0.0000
     5  C5        -1.1373      0.8721      0.6464  C       1  LIG       0.0000
     6  C6        -0.4139      1.7365     -0.0856  C       1  LIG       0.0000
     7  C7         1.0410      1.5019     -0.0143  C       1  LIG       0.0000
     8  O8         0.9625     -0.0683      1.1273  O       1  LIG       0.0000
     9  C9         0.0923      0.5306      1.5598  C       1  LIG       0.0000
    10  H10       -0.7506     -1.6872     -1.1957  H       1  LIG       0.0000
    11  H11        0.6424     -1.5316     -0.8811  H       1  LIG       0.0000
    12  H12       -0.0831     -1.4060      0.4661  H       1  LIG       0.0000
    13  H13       -0.0342     -1.4341     -0.4996  H       1  LIG       0.0000
    14  H14       -1.3388      1.9735     -0.3684  H       1  LIG       0.0000
    15  H15       -0.2274      1.2298      1.0928  H       1  LIG       0.0000
    16  H16        0.2511      1.7890      0.3861  H       1  LIG       0.0000
    17  H17        0.4408      2.1601     -1.1250  H       1  LIG       0.0000
    18  H18        1.8556      1.0674     -1.0749  H       1  LIG       0.0000
    19  H19       -1.4145      0.3429      1.9322  H       1  LIG       0.0000
    20  H20       -0.6964     -1.1899      0.9837  H       1  LIG       0.0000
@<TRIPOS>BOND
    1     7    18  1
    2     7    17  1
    3     7     8  1
    4     6     7  1
    5     8     9  1
    6     4    13  1
    7     3    10  1
    8     5    14  1
    9     1     2  3
   10     2     3  1
   11     9    19  1
   12     3     4  1
   13     4     5  1
   14     4    12  1
   15     3    11  1
   16     6     9  1
   17     9    20  1
   18     5     6  1
   19     6    16  1
   20     5    15  1
