@<TRIPOS>MOLECULE
generated_molecule
16 17 0 0 0
SMALL
NO_CHARGES

@<TRIPOS>ATOM
     1  O1        -0.9960     -2.1138      0.4172  O       1  LIG       0.0000
     2  C2        -1.0740     -0.4936     -0.0960  C       1  LIG       0.0000
     3  O3        -1.3525     -1.2521     -0.8864  O       1  LIG       0.0000
     4  C4        -0.0290     -1.3367     -1.0968  C       1  LIG       0.0000
     5  C5        -0.5619      0.3931      1.7870  C       1  LIG       0.0000
     6  C6         0.4689      1.7360      1.3978  C       1  LIG       0.0000
     7  C7         0.8590      0.4306      0.6523  C       1  LIG       0.0000
     8  N8         0.2069     -0.9405     -0.1339  N       1  LIG       0.0000
     9  C9         0.7962     -0.7147     -1.0699  C       1  LIG       0.0000
    10  H10        0.6175     -0.0182     -2.1985  H       1  LIG       0.0000
    11  H11       -0.1184      1.7287      1.5031  H       1  LIG       0.0000
    12  H12       -0.8042      0.9088      1.5119  H       1  LIG       0.0000
    13  H13        1.1220      0.9029      0.2685  H       1  LIG       0.0000
    14  H14       -0.0512      1.1033      0.0193  H       1  LIG       0.0000
    15  H15       -1.3614      0.2240     -0.7721  H       1  LIG       0.0000
    16  H16        2.2782     -0.5577     -1.3034  H       1  LIG       0.0000
@<TRIPOS>BOND
    1     4    10  1
    2     9    16  1
    3     3     4  1
    4     4     9  1
    5     4     5  1
    6     2     3  1
    7     5    11  1
    8     2     9  1
    9     8     9  1
   10     1     2  2
   11     5     6  2
   12     7    13  1
   13     6     7  1
   14     6    12  1
   15     7     8  1
   16     8    15  1
   17     7    14  1
