@<TRIPOS>MOLECULE
generated_molecule
17 19 0 0 0
SMALL
NO_CHARGES

@<TRIPOS>ATOM
     1  O1        -0.5059     -1.9897     -1.4665  O       1  LIG       0.0000
     2  C2        -0.6309     -0.7704     -0.3940  C       1  LIG       0.0000
     3  N3        -2.2891     -0.7399     -0.1538  N       1  LIG       0.0000
     4  C4        -1.0268     -0.5423      0.9992  C       1  LIG       0.0000
     5  C5         0.0456     -0.4078      0.2984  C       1  LIG       0.0000
     6  C6         1.1330     -0.3388     -0.8353  C       1  LIG       0.0000
     7  C7         2.1717     -0.3095      0.5357  C       1  LIG       0.0000
     8  C8         1.2292      1.1658     -0.1148  C       1  LIG       0.0000
     9  N9        -0.1713      0.4358     -0.8572  N       1  LIG       0.0000
    10  H10       -2.9160      0.6304     -0.4313  H       1  LIG       0.0000
    11  H11       -2.3145     -0.5452      0.8259  H       1  LIG       0.0000
    12  H12       -0.9880      0.9990      1.1137  H       1  LIG       0.0000
    13  H13        0.3016      0.0191     -1.6625  H       1  LIG       0.0000
    14  H14        1.3096      0.0152      1.9788  H       1  LIG       0.0000
    15  H15        0.7694     -0.9433      0.5261  H       1  LIG       0.0000
    16  H16        1.7582      2.1972      0.3163  H       1  LIG       0.0000
    17  H17        2.1242      1.1243     -0.6790  H       1  LIG       0.0000
@<TRIPOS>BOND
    1     8    16  1
    2     8    17  1
    3     4    11  1
    4     8     9  1
    5     7     8  1
    6     5     9  1
    7     6     9  1
    8     3    10  1
    9     3     4  1
   10     2     3  1
   11     1     2  2
   12     4     5  1
   13     4    12  1
   14     2     5  1
   15     5     6  1
   16     6     7  1
   17     6    13  1
   18     7    14  1
   19     7    15  1
