@<TRIPOS>MOLECULE
generated_molecule
16 16 0 0 0
SMALL
NO_CHARGES

@<TRIPOS>ATOM
     1  C1        -1.5141      1.8447      0.6036  C       1  LIG       0.0000
     2  N2        -0.6154      0.6142      0.0906  N       1  LIG       0.0000
     3  C3        -0.1094      0.9451     -1.5496  C       1  LIG       0.0000
     4  N4         1.4694      0.6668     -1.1556  N       1  LIG       0.0000
     5  C5         1.3686     -0.5603     -0.8219  C       1  LIG       0.0000
     6  C6         0.5428      0.5365      0.3125  C       1  LIG       0.0000
     7  C7         0.4198     -1.9988     -0.7799  C       1  LIG       0.0000
     8  N8         0.1015     -1.8862      1.4696  N       1  LIG       0.0000
     9  O9         0.8058     -2.4686     -0.7156  O       1  LIG       0.0000
    10  H10       -1.3842      2.3493     -0.9057  H       1  LIG       0.0000
    11  H11       -1.3281      0.5763      1.6604  H       1  LIG       0.0000
    12  H12       -2.0716      2.5097      0.9143  H       1  LIG       0.0000
    13  H13        1.2409      0.3225     -1.9538  H       1  LIG       0.0000
    14  H14       -0.0977     -0.0371      1.4254  H       1  LIG       0.0000
    15  H15        0.4904     -1.6537      0.2250  H       1  LIG       0.0000
    16  H16        0.6814     -1.7605      1.1805  H       1  LIG       0.0000
@<TRIPOS>BOND
    1     3    13  1
    2     1    11  1
    3     3     4  ar
    4     2     3  ar
    5     4     5  ar
    6     8    15  1
    7     1     2  1
    8     1    10  1
    9     1    12  1
   10     2     6  ar
   11     5     6  ar
   12     5     7  1
   13     8    16  1
   14     7     8  1
   15     6    14  1
   16     7     9  2
