@<TRIPOS>MOLECULE
generated_molecule
17 17 0 0 0
SMALL
NO_CHARGES

@<TRIPOS>ATOM
     1  C1        -0.3368      2.5912     -0.2209  C       1  LIG       0.0000
     2  N2        -0.2247      1.1203      1.0085  N       1  LIG       0.0000
     3  C3        -0.5772      0.2866     -0.0776  C       1  LIG       0.0000
     4  C4         0.6466     -1.3081     -1.3326  C       1  LIG       0.0000
     5  N5        -0.5321     -2.1795     -0.4148  N       1  LIG       0.0000
     6  C6        -0.7939     -1.4768      0.1227  C       1  LIG       0.0000
     7  C7         1.1001     -2.2083      0.3199  C       1  LIG       0.0000
     8  N8         1.0993     -2.8345     -0.4774  N       1  LIG       0.0000
     9  N9         0.2723     -1.1953     -0.5851  N       1  LIG       0.0000
    10  H10        0.0488      2.5065      1.4202  H       1  LIG       0.0000
    11  H11        1.2111      2.9035     -0.1796  H       1  LIG       0.0000
    12  H12       -1.0810      2.1183      0.1805  H       1  LIG       0.0000
    13  H13       -0.4142     -0.0376      0.5086  H       1  LIG       0.0000
    14  H14        0.1125      0.6767     -1.3763  H       1  LIG       0.0000
    15  H15        0.6209      0.8780     -0.4596  H       1  LIG       0.0000
    16  H16       -1.2101     -1.0973     -0.1566  H       1  LIG       0.0000
    17  H17        0.0584     -0.7439      1.7201  H       1  LIG       0.0000
@<TRIPOS>BOND
    1     6    16  1
    2     1    10  1
    3     1    11  1
    4     5     6  ar
    5     6     7  ar
    6     7    17  1
    7     1    12  1
    8     1     2  1
    9     4     5  ar
   10     7     8  ar
   11     2    13  1
   12     2     3  1
   13     4     9  ar
   14     3     4  1
   15     8     9  ar
   16     3    15  1
   17     3    14  1
