@<TRIPOS>MOLECULE
generated_molecule
25 26 0 0 0
SMALL
NO_CHARGES

@<TRIPOS>ATOM
     1  C1         0.6173      1.7432      0.3667  C       1  LIG       0.0000
     2  C2        -0.1068      0.7639      0.5542  C       1  LIG       0.0000
     3  C3        -0.8483      0.4064      1.0772  C       1  LIG       0.0000
     4  C4        -1.2730     -0.0970      0.2929  C       1  LIG       0.0000
     5  C5        -0.8797     -1.8813      1.0754  C       1  LIG       0.0000
     6  C6         0.0324     -1.1546      1.2691  C       1  LIG       0.0000
     7  C7         0.0506     -0.8407     -0.3456  C       1  LIG       0.0000
     8  C8         0.3866     -1.1980     -1.6636  C       1  LIG       0.0000
     9  C9         0.0192      0.4872     -1.6745  C       1  LIG       0.0000
    10  H10        1.2867      2.5422     -0.3176  H       1  LIG       0.0000
    11  H11        1.7905      0.6093     -0.2930  H       1  LIG       0.0000
    12  H12        0.9475      2.4546      1.2899  H       1  LIG       0.0000
    13  H13       -0.9592      1.5806     -0.0671  H       1  LIG       0.0000
    14  H14        0.4845      1.3068      1.4665  H       1  LIG       0.0000
    15  H15       -0.4055      0.0320      1.2772  H       1  LIG       0.0000
    16  H16       -1.2887      0.7836      1.5019  H       1  LIG       0.0000
    17  H17        0.5235     -2.5781      0.3380  H       1  LIG       0.0000
    18  H18       -1.0259     -2.2419      2.1096  H       1  LIG       0.0000
    19  H19        0.2389     -1.3875      0.0107  H       1  LIG       0.0000
    20  H20       -0.5016     -1.8494     -0.6757  H       1  LIG       0.0000
    21  H21        1.6464     -1.8739     -1.3971  H       1  LIG       0.0000
    22  H22        0.7154     -0.2704     -1.3094  H       1  LIG       0.0000
    23  H23       -0.8528      1.1782     -2.2951  H       1  LIG       0.0000
    24  H24       -1.4950      0.7130     -1.8570  H       1  LIG       0.0000
    25  H25        0.8969      0.7717     -0.7338  H       1  LIG       0.0000
@<TRIPOS>BOND
    1     9    24  1
    2     9    25  1
    3     4    16  1
    4     5    17  1
    5     9    23  1
    6     7     9  1
    7     4     5  1
    8     4     7  1
    9     3     4  1
   10     5    18  1
   11     5     6  1
   12     8    21  1
   13     7     8  1
   14     6     7  1
   15     1    11  1
   16     8    22  1
   17     8    20  1
   18     3     6  1
   19     6    19  1
   20     2     3  1
   21     3    15  1
   22     2    13  1
   23     1     2  1
   24     1    10  1
   25     1    12  1
   26     2    14  1
