@<TRIPOS>MOLECULE
generated_molecule
17 16 0 0 0
SMALL
NO_CHARGES

@<TRIPOS>ATOM
     1  C1         0.8912      1.7901     -0.7791  C       1  LIG       0.0000
     2  N2        -0.8727      0.6208     -0.7594  N       1  LIG       0.0000
     3  C3        -0.4478      0.7853     -1.4119  C       1  LIG       0.0000
     4  O4         0.4372     -0.3035     -0.6646  O       1  LIG       0.0000
     5  C5        -0.5910     -1.0472     -0.4049  C       1  LIG       0.0000
     6  C6        -0.3334     -2.1387      0.0105  C       1  LIG       0.0000
     7  C7        -0.5217     -0.7022      1.9119  C       1  LIG       0.0000
     8  O8         0.0652     -2.0603      1.4041  O       1  LIG       0.0000
     9  H9         1.6093      1.2280      0.4486  H       1  LIG       0.0000
    10  H10        0.5958      1.4197     -0.9333  H       1  LIG       0.0000
    11  H11        1.5409      1.2679      0.6887  H       1  LIG       0.0000
    12  H12        0.2899      0.7647     -1.3833  H       1  LIG       0.0000
    13  H13       -0.6247     -0.4555     -1.9978  H       1  LIG       0.0000
    14  H14        1.0584     -0.7145     -0.0963  H       1  LIG       0.0000
    15  H15       -1.6195     -0.3812      1.5876  H       1  LIG       0.0000
    16  H16       -0.4433     -0.6227      2.5200  H       1  LIG       0.0000
    17  H17       -1.0340      0.5492     -0.1407  H       1  LIG       0.0000
@<TRIPOS>BOND
    1     7    15  1
    2     5    13  1
    3     5    14  1
    4     7    16  1
    5     7    17  1
    6     6     7  1
    7     5     6  1
    8     4     5  1
    9     6     8  2
   10     3    12  1
   11     3     4  1
   12     2     3  1
   13     1    10  1
   14     1     2  1
   15     1     9  1
   16     1    11  1
