@<TRIPOS>MOLECULE
generated_molecule
17 17 0 0 0
SMALL
NO_CHARGES

@<TRIPOS>ATOM
     1  O1         1.1841     -0.2201      0.0277  O       1  LIG       0.0000
     2  C2         0.0544     -0.4981     -0.3157  C       1  LIG       0.0000
     3  C3        -1.2402     -1.5699      0.3247  C       1  LIG       0.0000
     4  O4        -1.0938     -0.2213      1.3408  O       1  LIG       0.0000
     5  C5        -0.6712      1.2301      0.1683  C       1  LIG       0.0000
     6  C6         0.9864      0.8894      0.1447  C       1  LIG       0.0000
     7  C7         1.5445      2.2061      1.8143  C       1  LIG       0.0000
     8  C8        -1.0091      0.4032     -0.8140  C       1  LIG       0.0000
     9  O9        -0.9023      0.8617     -2.0510  O       1  LIG       0.0000
    10  H10        1.8214     -1.4324      0.5031  H       1  LIG       0.0000
    11  H11        1.3304     -0.7027      0.4404  H       1  LIG       0.0000
    12  H12       -0.3679     -2.2968      0.1643  H       1  LIG       0.0000
    13  H13       -0.5671     -2.0094     -0.9295  H       1  LIG       0.0000
    14  H14       -0.5181      1.9245      1.1112  H       1  LIG       0.0000
    15  H15        2.1144      0.7375      0.7312  H       1  LIG       0.0000
    16  H16       -0.5921     -0.9020     -1.0616  H       1  LIG       0.0000
    17  H17       -2.0738      1.6001     -1.5987  H       1  LIG       0.0000
@<TRIPOS>BOND
    1     8    16  1
    2     8     9  1
    3     9    17  1
    4     2    11  1
    5     2     8  1
    6     5     8  1
    7     1    10  1
    8     1     2  1
    9     2     3  1
   10     5    14  1
   11     4     5  1
   12     5     6  1
   13     3    12  1
   14     3     4  1
   15     3    13  1
   16     6     7  3
   17     7    15  1
