@<TRIPOS>MOLECULE
generated_molecule
18 21 0 0 0
SMALL
NO_CHARGES

@<TRIPOS>ATOM
     1  C1        -0.7262      2.8446     -1.0180  C       1  LIG       0.0000
     2  C2        -0.2990      0.6766     -0.6571  C       1  LIG       0.0000
     3  C3        -0.1467     -1.3830      0.6546  C       1  LIG       0.0000
     4  C4        -0.5573     -0.1047     -0.0993  C       1  LIG       0.0000
     5  N5        -1.0217      0.3879     -1.0182  N       1  LIG       0.0000
     6  C6         0.2460     -1.1169     -0.7741  C       1  LIG       0.0000
     7  C7        -0.1756     -1.6604      0.2236  C       1  LIG       0.0000
     8  O8         0.2254     -1.3329      0.6584  O       1  LIG       0.0000
     9  C9         1.0315     -0.9418     -0.7034  C       1  LIG       0.0000
    10  H10       -0.0636      2.7845      0.0312  H       1  LIG       0.0000
    11  H11       -0.4506      1.7521      0.8520  H       1  LIG       0.0000
    12  H12       -0.1986      2.8517      0.0480  H       1  LIG       0.0000
    13  H13       -0.0856     -0.8778     -0.9080  H       1  LIG       0.0000
    14  H14        0.1489      0.2155      1.2177  H       1  LIG       0.0000
    15  H15       -0.5592      0.3889      0.6918  H       1  LIG       0.0000
    16  H16       -0.1201     -2.5051     -0.5250  H       1  LIG       0.0000
    17  H17        1.0699     -1.8942      0.9939  H       1  LIG       0.0000
    18  H18        1.6826     -0.0849      0.3317  H       1  LIG       0.0000
@<TRIPOS>BOND
    1     3    13  1
    2     7    17  1
    3     3     7  1
    4     3     4  1
    5     2     3  1
    6     7     8  1
    7     6     7  1
    8     8     9  1
    9     1    11  1
   10     4    15  1
   11     4    14  1
   12     4     5  1
   13     1    10  1
   14     1     2  1
   15     2     9  1
   16     2     5  1
   17     1    12  1
   18     6     9  1
   19     9    18  1
   20     5     6  1
   21     6    16  1
