@<TRIPOS>MOLECULE
generated_molecule
20 21 0 0 0
SMALL
NO_CHARGES

@<TRIPOS>ATOM
     1  C1         1.2230      0.8614      0.2717  C       1  LIG       0.0000
     2  C2         0.1323      0.0689      1.4224  C       1  LIG       0.0000
     3  N3        -0.3116     -1.4170      0.5952  N       1  LIG       0.0000
     4  C4         1.1951     -1.4510      0.9303  C       1  LIG       0.0000
     5  C5         1.2268     -0.9801     -0.1313  C       1  LIG       0.0000
     6  O6         1.4995      0.5148     -0.5363  O       1  LIG       0.0000
     7  C7        -0.6262     -0.3697      0.1585  C       1  LIG       0.0000
     8  C8        -1.0482      0.7863     -0.8400  C       1  LIG       0.0000
     9  O9        -1.2543     -0.1172     -0.8018  O       1  LIG       0.0000
    10  H10        1.8427      1.3527      1.2906  H       1  LIG       0.0000
    11  H11        0.4805      1.1511     -0.9092  H       1  LIG       0.0000
    12  H12       -0.3233      1.7312      0.0387  H       1  LIG       0.0000
    13  H13       -1.3647     -0.7248      1.3999  H       1  LIG       0.0000
    14  H14        0.4488     -2.1697     -0.1613  H       1  LIG       0.0000
    15  H15        1.4300     -1.4337     -0.8075  H       1  LIG       0.0000
    16  H16        2.4208      0.5108     -1.6522  H       1  LIG       0.0000
    17  H17       -2.0281      0.8782      0.5111  H       1  LIG       0.0000
    18  H18       -1.2995      0.5171      0.3651  H       1  LIG       0.0000
    19  H19       -1.6741      0.1147      0.0984  H       1  LIG       0.0000
    20  H20       -1.9695      0.1760     -1.2425  H       1  LIG       0.0000
@<TRIPOS>BOND
    1     8    18  1
    2     8    19  1
    3     9    20  1
    4     8    17  1
    5     7     8  1
    6     7     9  1
    7     5     7  1
    8     2     7  1
    9     1    11  1
   10     1    10  1
   11     5    15  1
   12     5     6  1
   13     6    16  1
   14     4     5  1
   15     1     2  1
   16     2     3  1
   17     2     4  1
   18     1    12  1
   19     3     4  1
   20     3    13  1
   21     4    14  1
