@<TRIPOS>MOLECULE
generated_molecule
19 20 0 0 0
SMALL
NO_CHARGES

@<TRIPOS>ATOM
     1  C1        -1.7090      0.8243     -0.3265  C       1  LIG       0.0000
     2  C2        -1.6273      0.3987      0.5418  C       1  LIG       0.0000
     3  C3        -0.1543      0.0754     -1.0803  C       1  LIG       0.0000
     4  C4         1.0219     -0.0022     -1.3265  C       1  LIG       0.0000
     5  C5         1.3823     -0.4091      0.5717  C       1  LIG       0.0000
     6  C6         0.8341     -1.3411      1.2578  C       1  LIG       0.0000
     7  C7        -0.6378     -0.6484      0.5309  C       1  LIG       0.0000
     8  C8         0.8471     -0.4227     -0.1242  C       1  LIG       0.0000
     9  O9         1.9093     -1.4318      0.0483  O       1  LIG       0.0000
    10  H10       -0.7064      1.8392     -0.7149  H       1  LIG       0.0000
    11  H11       -0.8928      2.8146      0.0914  H       1  LIG       0.0000
    12  H12       -2.1648      2.1061      0.0583  H       1  LIG       0.0000
    13  H13       -1.7106     -1.0407      0.7246  H       1  LIG       0.0000
    14  H14       -1.1776     -0.5752     -1.3602  H       1  LIG       0.0000
    15  H15        0.0042     -0.4309     -1.6844  H       1  LIG       0.0000
    16  H16        1.7129      0.9067     -0.1166  H       1  LIG       0.0000
    17  H17        2.4335     -0.6776     -0.5833  H       1  LIG       0.0000
    18  H18        0.6288     -0.2846      2.3735  H       1  LIG       0.0000
    19  H19        0.0065     -1.7008      1.1185  H       1  LIG       0.0000
@<TRIPOS>BOND
    1     4    15  1
    2     4    16  1
    3     3    14  1
    4     3     4  1
    5     4     5  1
    6     3     8  1
    7     2     3  1
    8     1    11  1
    9     5    17  1
   10     5     6  2
   11     8     9  2
   12     7     8  1
   13     1    10  1
   14     1     2  1
   15     2    13  1
   16     2     7  1
   17     1    12  1
   18     6     7  1
   19     6    18  1
   20     7    19  1
