@<TRIPOS>MOLECULE
generated_molecule
23 23 0 0 0
SMALL
NO_CHARGES

@<TRIPOS>ATOM
     1  C1         1.8087     -1.2116      0.7176  C       1  LIG       0.0000
     2  C2         0.5710     -0.7470      0.3592  C       1  LIG       0.0000
     3  C3         0.7969     -0.2077     -0.9926  C       1  LIG       0.0000
     4  C4        -0.4552     -0.0697     -1.5524  C       1  LIG       0.0000
     5  C5        -0.0149      0.3787      0.5155  C       1  LIG       0.0000
     6  C6         0.5829      1.1028      0.1466  C       1  LIG       0.0000
     7  C7        -1.5153      0.9665      0.9852  C       1  LIG       0.0000
     8  C8        -1.7303     -0.3315      1.2866  C       1  LIG       0.0000
     9  O9        -0.6664      0.3709      0.9128  O       1  LIG       0.0000
    10  H10        1.4906     -0.1892      0.9667  H       1  LIG       0.0000
    11  H11        2.1028      0.0662      0.0915  H       1  LIG       0.0000
    12  H12        1.1378     -0.7314      1.4542  H       1  LIG       0.0000
    13  H13       -0.3140     -0.7807     -0.8842  H       1  LIG       0.0000
    14  H14       -0.1403     -1.2903     -1.4851  H       1  LIG       0.0000
    15  H15       -0.3096     -0.1525     -2.3133  H       1  LIG       0.0000
    16  H16       -0.3292     -0.3029     -2.7420  H       1  LIG       0.0000
    17  H17        0.3092      0.9578     -2.2460  H       1  LIG       0.0000
    18  H18        0.6617      2.0925      0.3945  H       1  LIG       0.0000
    19  H19       -0.7422      0.7129      1.2753  H       1  LIG       0.0000
    20  H20        0.6316      2.1950     -0.0832  H       1  LIG       0.0000
    21  H21       -0.6116     -1.0240      1.0276  H       1  LIG       0.0000
    22  H22       -1.1125     -0.9652      0.4506  H       1  LIG       0.0000
    23  H23       -2.1515     -0.8395      1.7151  H       1  LIG       0.0000
@<TRIPOS>BOND
    1     1    11  1
    2     1    12  1
    3     1    10  1
    4     1     2  1
    5     4    17  1
    6     2    13  1
    7     2     3  1
    8     2     5  1
    9     4    15  1
   10     3     4  1
   11     4    16  1
   12     3    14  1
   13     3     5  1
   14     6    18  1
   15     5     6  1
   16     5     7  1
   17     7     9  2
   18     6    19  1
   19     6    20  1
   20     7     8  1
   21     8    21  1
   22     8    22  1
   23     8    23  1
