@<TRIPOS>MOLECULE
generated_molecule
21 22 0 0 0
SMALL
NO_CHARGES

@<TRIPOS>ATOM
     1  O1         1.1700      1.7426     -1.1377  O       1  LIG       0.0000
     2  C2         0.1137      1.6740     -1.1021  C       1  LIG       0.0000
     3  C3         0.7754      0.8590     -1.2681  C       1  LIG       0.0000
     4  C4        -1.1098      0.4841      0.0466  C       1  LIG       0.0000
     5  C5        -0.2227      0.9760      0.6224  C       1  LIG       0.0000
     6  C6        -0.8008     -1.4493      1.1877  C       1  LIG       0.0000
     7  C7        -0.3721     -1.4771      1.0507  C       1  LIG       0.0000
     8  C8         0.8004     -1.3881      1.5321  C       1  LIG       0.0000
     9  O9        -0.1316     -0.8474      0.1208  O       1  LIG       0.0000
    10  H10        0.3023      2.4882     -1.1159  H       1  LIG       0.0000
    11  H11        0.3508      0.9261     -1.6826  H       1  LIG       0.0000
    12  H12       -0.1253      0.7867     -0.7260  H       1  LIG       0.0000
    13  H13        0.6302     -0.0223     -1.1595  H       1  LIG       0.0000
    14  H14       -0.1024      2.4038      0.3499  H       1  LIG       0.0000
    15  H15       -0.4844      1.1451      0.1025  H       1  LIG       0.0000
    16  H16       -2.0089     -1.7082      0.4935  H       1  LIG       0.0000
    17  H17       -1.6666     -1.1513     -0.2304  H       1  LIG       0.0000
    18  H18        0.1353     -1.7085      2.1235  H       1  LIG       0.0000
    19  H19       -0.4642     -1.8948     -0.4060  H       1  LIG       0.0000
    20  H20        1.5164     -1.5827     -0.1001  H       1  LIG       0.0000
    21  H21        1.6943     -0.2557      1.2989  H       1  LIG       0.0000
@<TRIPOS>BOND
    1     1    10  1
    2     1     2  1
    3     5    15  1
    4     2    11  1
    5     5    14  1
    6     2     5  1
    7     2     3  1
    8     4     5  1
    9     6    16  1
   10     3     4  1
   11     3    13  1
   12     3    12  1
   13     4     6  1
   14     4     9  1
   15     6    17  1
   16     6     7  1
   17     8     9  1
   18     8    20  1
   19     7     8  1
   20     8    21  1
   21     7    18  1
   22     7    19  1
