@<TRIPOS>MOLECULE
generated_molecule
16 18 0 0 0
SMALL
NO_CHARGES

@<TRIPOS>ATOM
     1  O1         0.1865      2.1039      0.0116  O       1  LIG       0.0000
     2  C2         0.3587      0.7599     -1.2759  C       1  LIG       0.0000
     3  C3        -1.2106      0.7661     -0.6875  C       1  LIG       0.0000
     4  C4        -0.8490     -0.6703      0.4192  C       1  LIG       0.0000
     5  C5         0.8225     -1.2601      0.7711  C       1  LIG       0.0000
     6  O6         1.3821     -2.2924     -0.3495  O       1  LIG       0.0000
     7  C7         1.1417     -0.1662     -0.6693  C       1  LIG       0.0000
     8  N8         1.2051     -0.9417      0.5633  N       1  LIG       0.0000
     9  C9         0.5175      0.0806     -0.4036  C       1  LIG       0.0000
    10  H10        0.3496      3.0275     -0.8724  H       1  LIG       0.0000
    11  H11       -1.9237      1.1177      0.5833  H       1  LIG       0.0000
    12  H12       -1.5417     -1.5325      0.6800  H       1  LIG       0.0000
    13  H13       -1.6406     -1.2363      0.4775  H       1  LIG       0.0000
    14  H14        1.1635      0.9597      0.1605  H       1  LIG       0.0000
    15  H15        0.4341     -1.6791      0.1438  H       1  LIG       0.0000
    16  H16       -0.3957      0.9634      0.4478  H       1  LIG       0.0000
@<TRIPOS>BOND
    1     5     6  2
    2     4    13  1
    3     4     5  1
    4     5     7  1
    5     4    12  1
    6     3     4  1
    7     7    14  1
    8     2     7  1
    9     7     8  1
   10     2     3  1
   11     3    11  1
   12     3     9  1
   13     1     2  1
   14     2     9  1
   15     1    10  1
   16     8    15  1
   17     8     9  1
   18     9    16  1
