@<TRIPOS>MOLECULE
generated_molecule
16 15 0 0 0
SMALL
NO_CHARGES

@<TRIPOS>ATOM
     1  O1        -0.3003      2.7218      0.3057  O       1  LIG       0.0000
     2  C2         1.2222      0.6849     -0.1648  C       1  LIG       0.0000
     3  C3        -0.1791      0.1345     -0.8826  C       1  LIG       0.0000
     4  C4        -0.5931     -1.0751      0.0186  C       1  LIG       0.0000
     5  C5        -1.7174     -0.7972      0.4895  C       1  LIG       0.0000
     6  C6        -0.7104     -0.7975      1.0001  C       1  LIG       0.0000
     7  O7         1.3164     -1.1430      1.6316  O       1  LIG       0.0000
     8  C8        -1.1416     -0.6232     -1.1315  C       1  LIG       0.0000
     9  N9         0.2004     -1.0582     -1.8326  N       1  LIG       0.0000
    10  H10        1.3686      1.8262      0.2021  H       1  LIG       0.0000
    11  H11        1.7203      1.7561      0.5434  H       1  LIG       0.0000
    12  H12        0.9685      1.1347      0.4452  H       1  LIG       0.0000
    13  H13       -2.1502      0.5361     -0.3992  H       1  LIG       0.0000
    14  H14       -0.6315     -0.9155     -0.3130  H       1  LIG       0.0000
    15  H15       -0.4507     -1.6479     -0.2688  H       1  LIG       0.0000
    16  H16        1.0778     -0.7367      0.3563  H       1  LIG       0.0000
@<TRIPOS>BOND
    1     6    14  1
    2     5    13  1
    3     1    10  1
    4     1     2  1
    5     2    11  1
    6     6     7  1
    7     7    16  1
    8     5     6  1
    9     6    15  1
   10     4     5  1
   11     5     8  1
   12     3     4  3
   13     2     3  1
   14     2    12  1
   15     8     9  3
