@<TRIPOS>MOLECULE
generated_molecule
20 21 0 0 0
SMALL
NO_CHARGES

@<TRIPOS>ATOM
     1  C1         0.9775      1.7267     -0.2237  C       1  LIG       0.0000
     2  C2        -0.1736      0.5116     -0.7964  C       1  LIG       0.0000
     3  C3         0.4678      0.7588     -1.1187  C       1  LIG       0.0000
     4  C4        -0.6330     -1.1439     -1.1198  C       1  LIG       0.0000
     5  C5        -0.7960     -1.2951      0.5120  C       1  LIG       0.0000
     6  C6         0.5232      0.4837      1.0584  C       1  LIG       0.0000
     7  C7        -1.1643     -0.6259      0.4989  C       1  LIG       0.0000
     8  C8        -1.0365      0.0116      1.9153  C       1  LIG       0.0000
     9  H9         0.6270      1.7888     -1.4416  H       1  LIG       0.0000
    10  H10       -0.1847      2.3952     -0.6411  H       1  LIG       0.0000
    11  H11        0.8414      2.3070     -0.9503  H       1  LIG       0.0000
    12  H12        1.3445     -0.0011     -1.9235  H       1  LIG       0.0000
    13  H13        0.1308     -1.0431     -2.0539  H       1  LIG       0.0000
    14  H14       -0.4270     -1.6574     -1.9978  H       1  LIG       0.0000
    15  H15       -1.0191     -2.2507     -0.1759  H       1  LIG       0.0000
    16  H16        0.8561     -0.9173      1.7305  H       1  LIG       0.0000
    17  H17        1.3668     -0.5876      0.3751  H       1  LIG       0.0000
    18  H18       -0.8721     -1.5905      1.9476  H       1  LIG       0.0000
    19  H19        0.2420      0.4263      2.4911  H       1  LIG       0.0000
    20  H20       -1.0707      0.7031      1.9136  H       1  LIG       0.0000
@<TRIPOS>BOND
    1     3    12  1
    2     4    14  1
    3     4    13  1
    4     3     4  1
    5     2     3  2
    6     1    10  1
    7     4     5  1
    8     1     2  1
    9     2     7  1
   10     1    11  1
   11     1     9  1
   12     5     7  1
   13     5    15  1
   14     5     6  1
   15     6    17  1
   16     6     7  1
   17     7     8  1
   18     6    16  1
   19     8    19  1
   20     8    18  1
   21     8    20  1
