@<TRIPOS>MOLECULE
generated_molecule
17 18 0 0 0
SMALL
NO_CHARGES

@<TRIPOS>ATOM
     1  C1        -0.5790      2.9446      0.2363  C       1  LIG       0.0000
     2  C2         0.9358      1.9517     -0.0896  C       1  LIG       0.0000
     3  C3         0.8793     -0.1761     -0.1861  C       1  LIG       0.0000
     4  C4         1.3063     -0.1786      0.2961  C       1  LIG       0.0000
     5  O5         0.9008     -1.0080     -0.0005  O       1  LIG       0.0000
     6  C6        -1.2628     -1.7428     -0.6011  C       1  LIG       0.0000
     7  C7        -0.5077     -0.9701     -0.7399  C       1  LIG       0.0000
     8  C8        -0.7093     -1.5735      0.6497  C       1  LIG       0.0000
     9  O9        -0.7813     -2.7331     -0.0928  O       1  LIG       0.0000
    10  H10        0.0537      2.8941     -0.1812  H       1  LIG       0.0000
    11  H11       -0.7214      2.6488      1.5103  H       1  LIG       0.0000
    12  H12        0.8694      3.6297     -0.1422  H       1  LIG       0.0000
    13  H13        1.6318     -0.9819      1.4091  H       1  LIG       0.0000
    14  H14       -0.7063     -1.8217      0.8004  H       1  LIG       0.0000
    15  H15       -0.3394      0.5699     -1.0624  H       1  LIG       0.0000
    16  H16       -0.5579      0.2622     -1.2637  H       1  LIG       0.0000
    17  H17       -0.4120     -3.7152     -0.5424  H       1  LIG       0.0000
@<TRIPOS>BOND
    1     9    17  1
    2     8     9  1
    3     1    10  1
    4     4    13  1
    5     1    11  1
    6     4     8  1
    7     7     8  1
    8     6     8  1
    9     1     2  1
   10     1    12  1
   11     2     3  3
   12     3     4  1
   13     4     5  1
   14     7    15  1
   15     6     7  1
   16     7    16  1
   17     5     6  1
   18     6    14  1
