@<TRIPOS>MOLECULE
generated_molecule
25 25 0 0 0
SMALL
NO_CHARGES

@<TRIPOS>ATOM
     1  C1         0.5580      1.8524      0.7224  C       1  LIG       0.0000
     2  C2        -0.0333      0.4516      0.7137  C       1  LIG       0.0000
     3  C3         1.0731      1.4054      0.4568  C       1  LIG       0.0000
     4  O4         1.7040      0.5210     -0.0755  O       1  LIG       0.0000
     5  C5        -0.5321     -1.3958      0.7110  C       1  LIG       0.0000
     6  C6         0.0853     -2.1034      0.3531  C       1  LIG       0.0000
     7  C7         1.3042     -1.3211     -0.4609  C       1  LIG       0.0000
     8  C8        -1.1177     -0.6557     -0.3343  C       1  LIG       0.0000
     9  C9        -1.4470     -0.1518      0.1163  C       1  LIG       0.0000
    10  H10       -0.0654      1.3167      0.1107  H       1  LIG       0.0000
    11  H11       -0.3180      0.5406      0.7765  H       1  LIG       0.0000
    12  H12       -0.5643      1.8740      1.6431  H       1  LIG       0.0000
    13  H13       -0.6066      1.8038      0.3788  H       1  LIG       0.0000
    14  H14        0.7940     -0.5803      0.5304  H       1  LIG       0.0000
    15  H15        1.2930      0.3617      1.1613  H       1  LIG       0.0000
    16  H16        1.2235     -0.1494     -1.6350  H       1  LIG       0.0000
    17  H17       -1.4280     -1.1635     -0.4034  H       1  LIG       0.0000
    18  H18       -0.5352     -1.7929      0.0411  H       1  LIG       0.0000
    19  H19        0.9354     -0.4431     -1.4675  H       1  LIG       0.0000
    20  H20        1.3986     -0.0933     -1.3632  H       1  LIG       0.0000
    21  H21       -0.1848     -0.2946     -1.0763  H       1  LIG       0.0000
    22  H22       -1.7974     -1.8370      0.2548  H       1  LIG       0.0000
    23  H23        0.2645      0.6624     -1.0145  H       1  LIG       0.0000
    24  H24       -0.2029      0.4557     -0.1710  H       1  LIG       0.0000
    25  H25       -1.8009      0.7364      0.0316  H       1  LIG       0.0000
@<TRIPOS>BOND
    1     7    21  1
    2     7    20  1
    3     7    19  1
    4     6     7  1
    5     1    11  1
    6     6    18  1
    7     5     6  1
    8     6     8  1
    9     1    10  1
   10     1    12  1
   11     1     2  1
   12     2    13  1
   13     9    23  1
   14     9    25  1
   15     5     8  1
   16     2     5  1
   17     5    17  1
   18     8     9  1
   19     8    22  1
   20     2     3  1
   21     9    24  1
   22     3     4  1
   23     3    15  1
   24     3    14  1
   25     4    16  1
