@<TRIPOS>MOLECULE
generated_molecule
17 18 0 0 0
SMALL
NO_CHARGES

@<TRIPOS>ATOM
     1  O1         1.8960      0.3102      0.5163  O       1  LIG       0.0000
     2  C2         2.3246      0.3364      1.0280  C       1  LIG       0.0000
     3  O3         2.1830      0.8365     -0.2661  O       1  LIG       0.0000
     4  C4         0.3274     -0.0385      0.3534  C       1  LIG       0.0000
     5  N5        -1.0369      0.6623      0.0864  N       1  LIG       0.0000
     6  H6        -0.8146      1.8900      0.6892  H       1  LIG       0.0000
     7  H7         0.8745      0.0024     -1.0214  H       1  LIG       0.0000
     8  C8        -1.1717      0.9091     -0.2424  C       1  LIG       0.0000
     9  C9        -1.2867     -1.0973     -0.7439  C       1  LIG       0.0000
    10  N10       -0.0735     -1.0068     -0.9434  N       1  LIG       0.0000
    11  C11       -0.2790     -0.1645      1.2928  C       1  LIG       0.0000
    12  H12        0.7879     -0.6854      1.0771  H       1  LIG       0.0000
    13  H13       -0.5100      1.5681     -1.4226  H       1  LIG       0.0000
    14  H14       -1.8725      1.1480     -1.5005  H       1  LIG       0.0000
    15  H15       -1.9818     -1.4580      0.5593  H       1  LIG       0.0000
    16  H16        0.2271     -1.4713     -0.6138  H       1  LIG       0.0000
    17  H17        0.4060     -1.7413      1.1515  H       1  LIG       0.0000
@<TRIPOS>BOND
    1     5     6  1
    2     4    12  1
    3     4     5  1
    4     5     8  1
    5     2     3  2
    6     8    13  1
    7     2     4  1
    8     4    11  1
    9     1     2  1
   10     1     7  1
   11     8    14  1
   12     8     9  1
   13    11    17  1
   14     9    11  1
   15    10    11  1
   16     9    15  1
   17     9    10  1
   18    10    16  1
