@<TRIPOS>MOLECULE
generated_molecule
21 22 0 0 0
SMALL
NO_CHARGES

@<TRIPOS>ATOM
     1  C1        -0.0397      0.1677     -0.3728  C       1  LIG       0.0000
     2  C2         1.2306      0.5340      0.6691  C       1  LIG       0.0000
     3  C3         0.8848     -0.3072     -0.2053  C       1  LIG       0.0000
     4  C4         1.5046      0.2857     -0.7254  C       1  LIG       0.0000
     5  C5        -0.2396      0.5149     -0.7967  C       1  LIG       0.0000
     6  C6        -1.1167      0.4350      0.2096  C       1  LIG       0.0000
     7  C7        -1.1879     -0.9034      0.6795  C       1  LIG       0.0000
     8  O8        -1.2507     -0.1628     -0.0846  O       1  LIG       0.0000
     9  C9        -0.7044     -0.0737     -0.3955  C       1  LIG       0.0000
    10  H10       -1.3053      0.0866      0.4871  H       1  LIG       0.0000
    11  H11        0.5151     -0.8824      0.9427  H       1  LIG       0.0000
    12  H12       -0.0926      1.0211      0.8362  H       1  LIG       0.0000
    13  H13        1.0264      1.5392     -0.5974  H       1  LIG       0.0000
    14  H14        0.2091      0.8501     -1.4444  H       1  LIG       0.0000
    15  H15        1.5878     -0.9665      0.1972  H       1  LIG       0.0000
    16  H16       -0.1878     -0.5804      1.1181  H       1  LIG       0.0000
    17  H17        0.2942      1.4622      0.0756  H       1  LIG       0.0000
    18  H18       -0.4535     -1.9928     -0.4772  H       1  LIG       0.0000
    19  H19       -2.3220     -1.4148     -0.1945  H       1  LIG       0.0000
    20  H20        0.9426     -0.3940      0.1278  H       1  LIG       0.0000
    21  H21        0.7050      0.7816     -0.0493  H       1  LIG       0.0000
@<TRIPOS>BOND
    1     1    11  1
    2     1    10  1
    3     1     4  1
    4     1     2  1
    5     4    15  1
    6     2    12  1
    7     3     4  1
    8     4    14  1
    9     2     3  1
   10     2    13  1
   11     3     5  2
   12     9    20  1
   13     6    17  1
   14     7    19  1
   15     5     6  1
   16     5     9  1
   17     6     7  1
   18     6    16  1
   19     9    21  1
   20     8     9  1
   21     7     8  1
   22     7    18  1
