@<TRIPOS>MOLECULE
generated_molecule
20 19 0 0 0
SMALL
NO_CHARGES

@<TRIPOS>ATOM
     1  C1         0.5004      1.0038     -0.4340  C       1  LIG       0.0000
     2  C2         1.1054      0.9578     -0.3298  C       1  LIG       0.0000
     3  C3         0.1534      0.2028     -1.7728  C       1  LIG       0.0000
     4  O4        -1.0347      0.6059     -1.8839  O       1  LIG       0.0000
     5  C5         0.2922     -0.6117      0.0866  C       1  LIG       0.0000
     6  O6        -0.8220     -0.9785     -1.3893  O       1  LIG       0.0000
     7  C7         1.0316      0.0557     -0.2056  C       1  LIG       0.0000
     8  N8         1.5623     -0.1084      0.9131  N       1  LIG       0.0000
     9  O9        -0.2200     -0.4947      0.4253  O       1  LIG       0.0000
    10  H10        0.2523      1.6437      0.7196  H       1  LIG       0.0000
    11  H11        1.4390      1.1201      1.0125  H       1  LIG       0.0000
    12  H12        0.2833      0.3083      0.5854  H       1  LIG       0.0000
    13  H13       -0.2397      0.2291     -0.4957  H       1  LIG       0.0000
    14  H14       -0.4992     -0.6649     -0.8863  H       1  LIG       0.0000
    15  H15       -1.4000     -0.4860     -0.8347  H       1  LIG       0.0000
    16  H16       -1.2554     -0.7151      0.1892  H       1  LIG       0.0000
    17  H17       -0.5975     -0.8306      1.1699  H       1  LIG       0.0000
    18  H18       -1.7947     -0.8087      0.3278  H       1  LIG       0.0000
    19  H19        1.3894      0.0028      1.2566  H       1  LIG       0.0000
    20  H20       -0.1460     -0.4315      1.5460  H       1  LIG       0.0000
@<TRIPOS>BOND
    1     7     9  2
    2     8    20  1
    3     7     8  1
    4     2     7  1
    5     8    19  1
    6     1    11  1
    7     5    16  1
    8     5    17  1
    9     1     2  1
   10     1    10  1
   11     1    12  1
   12     2     5  1
   13     2     3  1
   14     5     6  1
   15     3    13  1
   16     3     4  1
   17     3    14  1
   18     6    18  1
   19     4    15  1
