@<TRIPOS>MOLECULE
generated_molecule
21 20 0 0 0
SMALL
NO_CHARGES

@<TRIPOS>ATOM
     1  C1        -0.4667      2.8171     -0.4730  C       1  LIG       0.0000
     2  C2        -0.0122      1.7538     -1.2088  C       1  LIG       0.0000
     3  C3         0.1365     -0.4121     -1.4182  C       1  LIG       0.0000
     4  C4         0.5044     -1.0031      0.1195  C       1  LIG       0.0000
     5  C5        -0.6493     -1.6852      0.5059  C       1  LIG       0.0000
     6  C6        -0.4588     -1.7583     -0.7097  C       1  LIG       0.0000
     7  C7        -0.5247      0.3693      0.2763  C       1  LIG       0.0000
     8  C8        -0.0272     -0.5091      0.8133  C       1  LIG       0.0000
     9  C9        -0.2286     -0.0298      1.9247  C       1  LIG       0.0000
    10  H10        1.2899      2.8781     -0.3790  H       1  LIG       0.0000
    11  H11        0.3555      2.6354      0.7994  H       1  LIG       0.0000
    12  H12       -0.6452      2.1739     -0.3270  H       1  LIG       0.0000
    13  H13        1.4970     -1.6667     -0.7896  H       1  LIG       0.0000
    14  H14        1.9278     -0.8949      0.2725  H       1  LIG       0.0000
    15  H15       -1.5459     -1.8067      0.2209  H       1  LIG       0.0000
    16  H16        0.5642     -1.6888      0.3705  H       1  LIG       0.0000
    17  H17       -0.7653     -0.5954     -0.8909  H       1  LIG       0.0000
    18  H18       -1.9466     -1.9180     -0.4184  H       1  LIG       0.0000
    19  H19        0.5765      1.1065     -0.5729  H       1  LIG       0.0000
    20  H20        0.8380      0.4799      0.3542  H       1  LIG       0.0000
    21  H21       -0.4194     -0.2458      1.5304  H       1  LIG       0.0000
@<TRIPOS>BOND
    1     4    13  1
    2     6    17  1
    3     5    16  1
    4     7    20  1
    5     1    11  1
    6     9    21  1
    7     8     9  3
    8     3     4  1
    9     4     5  1
   10     4    14  1
   11     5     6  1
   12     6     7  1
   13     6    18  1
   14     7     8  1
   15     2     3  3
   16     5    15  1
   17     7    19  1
   18     1     2  1
   19     1    10  1
   20     1    12  1
