@<TRIPOS>MOLECULE
generated_molecule
18 19 0 0 0
SMALL
NO_CHARGES

@<TRIPOS>ATOM
     1  N1         1.9173      2.6884     -0.4838  N       1  LIG       0.0000
     2  C2         1.1159      3.0975      0.1770  C       1  LIG       0.0000
     3  O3         0.5694      1.4930     -0.3583  O       1  LIG       0.0000
     4  C4        -0.6098     -1.9427      0.0498  C       1  LIG       0.0000
     5  C5        -1.7912     -1.9802      0.3928  C       1  LIG       0.0000
     6  C6        -1.9775     -0.1582      0.1813  C       1  LIG       0.0000
     7  C7         0.5175     -0.1858     -0.9073  C       1  LIG       0.0000
     8  C8        -0.3276     -0.8794     -0.5251  C       1  LIG       0.0000
     9  C9        -0.9491     -1.5907      0.0187  C       1  LIG       0.0000
    10  H10        1.3346      1.5027     -1.3271  H       1  LIG       0.0000
    11  H11        1.7334      1.0629     -0.6829  H       1  LIG       0.0000
    12  H12        0.8907     -1.5848     -0.0898  H       1  LIG       0.0000
    13  H13       -0.6970     -1.6363      0.8000  H       1  LIG       0.0000
    14  H14       -1.4629      1.2259      0.7599  H       1  LIG       0.0000
    15  H15       -0.9735      1.7928      0.6581  H       1  LIG       0.0000
    16  H16        0.1061     -0.5837      0.3077  H       1  LIG       0.0000
    17  H17        0.2666     -0.1738      0.6924  H       1  LIG       0.0000
    18  H18        0.3370     -2.1474      0.3365  H       1  LIG       0.0000
@<TRIPOS>BOND
    1     7    16  1
    2     8    17  1
    3     7     8  1
    4     4     7  1
    5     6     7  1
    6     8     9  2
    7     4    12  1
    8     3     4  1
    9     2     3  1
   10     4     5  1
   11     1     2  1
   12     2    11  1
   13     1    10  1
   14     6    15  1
   15     6    14  1
   16     5     6  1
   17     5     9  1
   18     9    18  1
   19     5    13  1
