@<TRIPOS>MOLECULE
generated_molecule
19 21 0 0 0
SMALL
NO_CHARGES

@<TRIPOS>ATOM
     1  C1        -0.1589      2.0485      0.4825  C       1  LIG       0.0000
     2  C2        -0.9151      0.8307      0.7678  C       1  LIG       0.0000
     3  C3        -1.1752     -0.0805     -0.9517  C       1  LIG       0.0000
     4  C4         0.1906     -0.2936     -1.2834  C       1  LIG       0.0000
     5  C5         1.0407     -0.5389     -0.2282  C       1  LIG       0.0000
     6  O6         1.1588     -2.0661     -1.2045  O       1  LIG       0.0000
     7  C7        -0.0693     -0.6127     -0.4108  C       1  LIG       0.0000
     8  C8         0.0767     -1.6719      0.4570  C       1  LIG       0.0000
     9  C9        -0.0153      0.3974      0.9349  C       1  LIG       0.0000
    10  H10        0.2933      2.4502      0.5237  H       1  LIG       0.0000
    11  H11       -0.1753      2.3164     -0.9180  H       1  LIG       0.0000
    12  H12        0.8889      2.3101      1.4217  H       1  LIG       0.0000
    13  H13       -1.3541      1.1851     -0.8261  H       1  LIG       0.0000
    14  H14        0.5961     -2.0572     -1.2266  H       1  LIG       0.0000
    15  H15        1.3485     -2.1392     -0.4642  H       1  LIG       0.0000
    16  H16       -1.4157     -0.4736      0.1108  H       1  LIG       0.0000
    17  H17       -0.6143     -1.4158      1.6844  H       1  LIG       0.0000
    18  H18        0.2292     -0.9268      1.6526  H       1  LIG       0.0000
    19  H19        0.0702      0.7379     -0.5218  H       1  LIG       0.0000
@<TRIPOS>BOND
    1     3    13  1
    2     4    14  1
    3     3     4  2
    4     2     3  1
    5     4     5  1
    6     1    11  1
    7     1    10  1
    8     1     2  1
    9     1    12  1
   10     2     9  1
   11     2     7  1
   12     9    19  1
   13     5     9  1
   14     5     6  1
   15     5     7  1
   16     8     9  1
   17     6    15  1
   18     7    16  1
   19     7     8  1
   20     8    18  1
   21     8    17  1
