@<TRIPOS>MOLECULE
generated_molecule
13 13 0 0 0
SMALL
NO_CHARGES

@<TRIPOS>ATOM
     1  O1         1.6097     -2.5298     -1.0823  O       1  LIG       0.0000
     2  C2         0.8586     -1.3175     -1.0446  C       1  LIG       0.0000
     3  O3         0.8612     -0.5419     -1.9209  O       1  LIG       0.0000
     4  C4        -0.0626      1.0871     -1.3779  C       1  LIG       0.0000
     5  C5         0.5455      0.4240     -0.2427  C       1  LIG       0.0000
     6  C6        -0.1347      0.9661      0.9538  C       1  LIG       0.0000
     7  C7        -1.4868      0.2546      0.6148  C       1  LIG       0.0000
     8  C8        -1.9969     -0.5721      1.5795  C       1  LIG       0.0000
     9  O9         1.9385     -0.7104     -0.6175  O       1  LIG       0.0000
    10  H10       -0.5218      1.4606     -0.0053  H       1  LIG       0.0000
    11  H11       -0.1242      1.3317      1.7050  H       1  LIG       0.0000
    12  H12        0.5118      2.0087      0.4749  H       1  LIG       0.0000
    13  H13       -1.9983     -1.8612      0.9633  H       1  LIG       0.0000
@<TRIPOS>BOND
    1     1     2  2
    2     6    12  1
    3     2     9  ar
    4     5     9  ar
    5     2     3  ar
    6     5     6  1
    7     4     5  ar
    8     6    11  1
    9     6     7  1
   10     3     4  ar
   11     4    10  1
   12     7     8  3
   13     8    13  1
