@<TRIPOS>MOLECULE
generated_molecule
15 17 0 0 0
SMALL
NO_CHARGES

@<TRIPOS>ATOM
     1  O1        -0.4340     -2.7674      0.7743  O       1  LIG       0.0000
     2  C2        -1.3162     -1.6977     -0.0053  C       1  LIG       0.0000
     3  O3        -0.3435     -0.3562      0.1863  O       1  LIG       0.0000
     4  C4        -1.2314     -0.1175     -0.1896  C       1  LIG       0.0000
     5  C5         0.1694      1.0868      0.3258  C       1  LIG       0.0000
     6  C6         0.8708      1.5903     -0.9153  C       1  LIG       0.0000
     7  O7         0.4883     -0.9183      0.7930  O       1  LIG       0.0000
     8  C8         0.9806     -1.5566      0.2818  C       1  LIG       0.0000
     9  C9         0.4073      0.3450     -1.2147  C       1  LIG       0.0000
    10  H10       -1.4796      1.2840     -0.5639  H       1  LIG       0.0000
    11  H11       -0.2149      1.8593      0.4809  H       1  LIG       0.0000
    12  H12        0.1619      0.5102      1.7603  H       1  LIG       0.0000
    13  H13        1.4360      1.9484      0.4476  H       1  LIG       0.0000
    14  H14        0.5183     -1.9384     -0.6409  H       1  LIG       0.0000
    15  H15       -0.0131      0.7281     -1.5204  H       1  LIG       0.0000
@<TRIPOS>BOND
    1     9    15  1
    2     8    14  1
    3     1     2  2
    4     2     8  1
    5     2     3  1
    6     8     9  1
    7     7     8  1
    8     4     9  1
    9     6     9  1
   10     4    10  1
   11     3     4  1
   12     4     5  1
   13     6     7  1
   14     5     6  1
   15     6    13  1
   16     5    11  1
   17     5    12  1
