@<TRIPOS>MOLECULE
generated_molecule
19 21 0 0 0
SMALL
NO_CHARGES

@<TRIPOS>ATOM
     1  O1        -0.5815     -2.7938      0.0541  O       1  LIG       0.0000
     2  C2        -1.7747     -1.9490      0.6887  C       1  LIG       0.0000
     3  C3        -0.8027     -0.2133     -0.2395  C       1  LIG       0.0000
     4  C4        -0.5938      0.3330      1.4499  C       1  LIG       0.0000
     5  C5         0.3623      1.2549      0.6423  C       1  LIG       0.0000
     6  C6         0.9672      0.0010      0.0185  C       1  LIG       0.0000
     7  C7         0.7017     -0.1134     -1.2900  C       1  LIG       0.0000
     8  C8        -0.7428      0.2699     -0.3308  C       1  LIG       0.0000
     9  C9         0.0968     -0.1610      0.2812  C       1  LIG       0.0000
    10  H10       -0.8530     -2.3470     -0.5175  H       1  LIG       0.0000
    11  H11       -1.3880      0.7771      1.2942  H       1  LIG       0.0000
    12  H12       -0.6904      1.0146      1.3101  H       1  LIG       0.0000
    13  H13        1.2644      0.7030     -0.1456  H       1  LIG       0.0000
    14  H14        2.0319     -0.0322      0.9944  H       1  LIG       0.0000
    15  H15        1.3033      1.3728     -0.6929  H       1  LIG       0.0000
    16  H16        1.5853      0.0576     -2.0178  H       1  LIG       0.0000
    17  H17       -1.6213     -0.3333     -1.4200  H       1  LIG       0.0000
    18  H18       -0.3162      1.0270     -0.8335  H       1  LIG       0.0000
    19  H19        1.0516      1.1321      0.7544  H       1  LIG       0.0000
@<TRIPOS>BOND
    1     6    14  1
    2     5    13  1
    3     5     6  1
    4     6     7  1
    5     6     9  1
    6     3     5  1
    7     4     5  1
    8     7    15  1
    9     9    19  1
   10     2    10  1
   11     2     3  1
   12     1     2  2
   13     7    16  1
   14     7     8  1
   15     3     9  1
   16     8     9  1
   17     3     4  1
   18     4    11  1
   19     4    12  1
   20     8    17  1
   21     8    18  1
