@<TRIPOS>MOLECULE
generated_molecule
18 21 0 0 0
SMALL
NO_CHARGES

@<TRIPOS>ATOM
     1  O1         0.0052      1.0136      0.8632  O       1  LIG       0.0000
     2  C2        -0.7410     -0.1098     -0.2197  C       1  LIG       0.0000
     3  C3         1.0410      0.9046      0.2995  C       1  LIG       0.0000
     4  C4         1.0959      0.0570      0.8492  C       1  LIG       0.0000
     5  N5        -0.0394     -1.4774      0.9210  N       1  LIG       0.0000
     6  C6        -0.0169     -1.4711      0.0738  C       1  LIG       0.0000
     7  C7        -0.8690     -1.3620      0.3975  C       1  LIG       0.0000
     8  C8        -1.4134      0.1126     -1.4732  C       1  LIG       0.0000
     9  C9        -0.1977      0.3614     -1.7081  C       1  LIG       0.0000
    10  H10        0.6218      2.1178      0.2500  H       1  LIG       0.0000
    11  H11        0.3507      1.2136      0.7282  H       1  LIG       0.0000
    12  H12        1.6244      1.6615     -0.8338  H       1  LIG       0.0000
    13  H13        1.4858     -1.5555      0.6736  H       1  LIG       0.0000
    14  H14        1.6763     -0.2604      0.7960  H       1  LIG       0.0000
    15  H15       -0.6221     -1.9440     -0.7581  H       1  LIG       0.0000
    16  H16       -1.5156     -1.6084      1.0895  H       1  LIG       0.0000
    17  H17       -0.9820      1.5856     -0.9490  H       1  LIG       0.0000
    18  H18       -1.5041      0.7609     -0.9995  H       1  LIG       0.0000
@<TRIPOS>BOND
    1     4    13  1
    2     3    11  1
    3     3     4  1
    4     4    14  1
    5     4     5  1
    6     3    12  1
    7     2     3  1
    8     7    16  1
    9     5     7  1
   10     5     6  1
   11     1     2  1
   12     2     8  1
   13     2     9  1
   14     7     8  1
   15     6     7  1
   16     1    10  1
   17     8    17  1
   18     8     9  1
   19     6     9  1
   20     6    15  1
   21     9    18  1
