@<TRIPOS>MOLECULE
generated_molecule
13 13 0 0 0
SMALL
NO_CHARGES

@<TRIPOS>ATOM
     1  O1        -0.9359     -2.3682     -0.0850  O       1  LIG       0.0000
     2  C2        -0.0369     -1.0740      0.1565  C       1  LIG       0.0000
     3  C3        -0.9785      0.0915     -0.5814  C       1  LIG       0.0000
     4  C4        -0.6311      1.3508     -0.9658  C       1  LIG       0.0000
     5  O5         0.6657      1.3486     -0.6406  O       1  LIG       0.0000
     6  C6         0.2149      0.3938      0.4734  C       1  LIG       0.0000
     7  O7         1.3087     -0.5873      0.8084  O       1  LIG       0.0000
     8  C8         1.1892      0.4530     -0.1856  C       1  LIG       0.0000
     9  C9         0.7744      0.5081      0.1664  C       1  LIG       0.0000
    10  H10       -0.9182      0.1152      0.8282  H       1  LIG       0.0000
    11  H11       -0.7765     -1.1990     -0.3044  H       1  LIG       0.0000
    12  H12       -0.6576      2.1920      0.0760  H       1  LIG       0.0000
    13  H13        0.7816     -1.2244      0.2538  H       1  LIG       0.0000
@<TRIPOS>BOND
    1     9    13  1
    2     8     9  3
    3     4    12  1
    4     4     8  1
    5     4     5  1
    6     3     4  1
    7     1     2  2
    8     5     6  1
    9     2     3  1
   10     2    10  1
   11     3    11  1
   12     3     6  1
   13     6     7  2
