
     RDKit          3D

 20 20  0  0  0  0  0  0  0  0999 V2000
   -1.2154   -1.5983   -3.6790 N   0  0  0  0  0  0  0  0  0  0  0  0
   -1.0866   -1.7248   -2.4996 C   0  0  0  0  0  0  0  0  0  0  0  0
   -0.7658   -2.0660   -1.1365 C   0  0  0  0  0  0  0  0  0  0  0  0
    0.0830   -0.9389   -0.4899 C   0  0  0  0  0  0  0  0  0  0  0  0
   -0.5052    0.4245   -0.3697 C   0  0  0  0  0  0  0  0  0  0  0  0
    0.0543    1.4422    0.6412 C   0  0  0  0  0  0  0  0  0  0  0  0
    1.5185    1.4998    0.7889 C   0  0  0  0  0  0  0  0  0  0  0  0
    1.3417    0.5703    2.0344 O   0  0  0  0  0  0  0  0  0  0  0  0
   -0.0722    1.0495    2.0992 C   0  0  0  0  0  0  0  0  0  0  0  0
   -1.5925   -2.2471   -0.5598 H   0  0  0  0  0  0  0  0  0  0  0  0
   -0.1025   -2.9676   -1.1738 H   0  0  0  0  0  0  0  0  0  0  0  0
    0.3421   -1.2700    0.5304 H   0  0  0  0  0  0  0  0  0  0  0  0
    1.0161   -0.8950   -0.9588 H   0  0  0  0  0  0  0  0  0  0  0  0
   -0.3272    0.8660   -1.3889 H   0  0  0  0  0  0  0  0  0  0  0  0
   -1.5939    0.3279   -0.2642 H   0  0  0  0  0  0  0  0  0  0  0  0
   -0.3922    2.4097    0.3882 H   0  0  0  0  0  0  0  0  0  0  0  0
    1.8833    1.0025   -0.1379 H   0  0  0  0  0  0  0  0  0  0  0  0
    2.5608    1.7814    1.0954 H   0  0  0  0  0  0  0  0  0  0  0  0
   -0.3618    1.9973    2.5715 H   0  0  0  0  0  0  0  0  0  0  0  0
   -0.7845    0.3362    2.5087 H   0  0  0  0  0  0  0  0  0  0  0  0
  7 18  1  0
  7 17  1  0
  7  8  1  0
  6  7  1  0
  8  9  1  0
  4 13  1  0
  3 10  1  0
  5 14  1  0
  1  2  3  0
  2  3  1  0
  9 19  1  0
  3  4  1  0
  4  5  1  0
  4 12  1  0
  3 11  1  0
  6  9  1  0
  9 20  1  0
  5  6  1  0
  6 16  1  0
  5 15  1  0
M  END
$$$$

     RDKit          3D

 19 20  0  0  0  0  0  0  0  0999 V2000
    1.5899    1.3992   -0.4618 C   0  0  0  0  0  0  0  0  0  0  0  0
    0.1811    1.3162   -1.0825 C   0  0  0  0  0  0  0  0  0  0  0  0
   -0.8403    0.6878   -0.1718 C   0  0  0  0  0  0  0  0  0  0  0  0
   -0.3744   -0.5636    0.5677 C   0  0  0  0  0  0  0  0  0  0  0  0
    0.3377   -1.6753   -0.1814 C   0  0  0  0  0  0  0  0  0  0  0  0
   -1.0415   -1.8814    0.3253 C   0  0  0  0  0  0  0  0  0  0  0  0
   -1.2044   -2.0254    1.7587 O   0  0  0  0  0  0  0  0  0  0  0  0
   -0.7170   -0.7889    1.9702 C   0  0  0  0  0  0  0  0  0  0  0  0
   -0.7079   -0.0834    2.9578 O   0  0  0  0  0  0  0  0  0  0  0  0
    2.2887    1.8955   -1.1443 H   0  0  0  0  0  0  0  0  0  0  0  0
    1.5674    1.9732    0.4732 H   0  0  0  0  0  0  0  0  0  0  0  0
    1.9920    0.4013   -0.2771 H   0  0  0  0  0  0  0  0  0  0  0  0
   -0.1665    2.3440   -1.2636 H   0  0  0  0  0  0  0  0  0  0  0  0
    0.2414    0.7660   -2.0481 H   0  0  0  0  0  0  0  0  0  0  0  0
   -1.7649    0.4732   -0.7254 H   0  0  0  0  0  0  0  0  0  0  0  0
   -1.1335    1.4424    0.5851 H   0  0  0  0  0  0  0  0  0  0  0  0
    0.5075   -1.5181   -1.2473 H   0  0  0  0  0  0  0  0  0  0  0  0
    1.1409   -2.2390    0.3041 H   0  0  0  0  0  0  0  0  0  0  0  0
   -1.8959   -1.9237   -0.3386 H   0  0  0  0  0  0  0  0  0  0  0  0
  8  9  2  0
  2 14  1  0
  1 11  1  0
  1 10  1  0
  1  2  1  0
  1 12  1  0
  2 13  1  0
  2  3  1  0
  7  8  1  0
  4  8  1  0
  3 15  1  0
  6  7  1  0
  3  4  1  0
  3 16  1  0
  4  5  1  0
  4  6  1  0
  5 18  1  0
  5  6  1  0
  5 17  1  0
  6 19  1  0
M  END
$$$$

     RDKit          3D

 16 17  0  0  0  0  0  0  0  0999 V2000
    0.9041    1.1990    1.5272 O   0  0  0  0  0  0  0  0  0  0  0  0
    0.8197    0.9442    0.1363 C   0  0  0  0  0  0  0  0  0  0  0  0
    1.5276   -0.3329   -0.2633 C   0  0  0  0  0  0  0  0  0  0  0  0
    0.9240   -0.6978   -1.5462 N   0  0  0  0  0  0  0  0  0  0  0  0
   -0.4814   -0.2945   -1.4617 C   0  0  0  0  0  0  0  0  0  0  0  0
   -1.3036   -1.3883   -1.0804 O   0  0  0  0  0  0  0  0  0  0  0  0
   -1.5899   -1.1986    0.2988 C   0  0  0  0  0  0  0  0  0  0  0  0
   -1.5136    0.1741    0.6105 O   0  0  0  0  0  0  0  0  0  0  0  0
   -0.6179    0.7330   -0.3517 C   0  0  0  0  0  0  0  0  0  0  0  0
    0.5257    2.0893    1.6995 H   0  0  0  0  0  0  0  0  0  0  0  0
    1.2702    1.7907   -0.4017 H   0  0  0  0  0  0  0  0  0  0  0  0
    1.3942   -1.1431    0.4730 H   0  0  0  0  0  0  0  0  0  0  0  0
    2.6161   -0.1837   -0.3663 H   0  0  0  0  0  0  0  0  0  0  0  0
   -2.5786   -1.6186    0.5310 H   0  0  0  0  0  0  0  0  0  0  0  0
   -0.8606   -1.7405    0.9150 H   0  0  0  0  0  0  0  0  0  0  0  0
   -1.0361    1.6677   -0.7199 H   0  0  0  0  0  0  0  0  0  0  0  0
  2 11  1  0
  9 16  1  0
  8  9  1  0
  7  8  1  0
  2  9  1  0
  5  9  1  0
  7 14  1  0
  1  2  1  0
  2  3  1  0
  1 10  1  0
  7 15  1  0
  6  7  1  0
  3 12  1  0
  3 13  1  0
  3  4  1  0
  5  6  1  0
  4  5  1  0
M  END
$$$$

     RDKit          3D

 17 17  0  0  0  0  0  0  0  0999 V2000
    0.4009    1.7553   -2.0761 O   0  0  0  0  0  0  0  0  0  0  0  0
    0.2305    0.9153   -1.2177 C   0  0  0  0  0  0  0  0  0  0  0  0
   -0.5287   -0.1322   -1.4950 N   0  0  0  0  0  0  0  0  0  0  0  0
   -0.9890   -1.2700   -0.7033 C   0  0  0  0  0  0  0  0  0  0  0  0
   -2.3486   -1.3377    0.0126 C   0  0  0  0  0  0  0  0  0  0  0  0
   -3.3602   -1.1048    0.5627 N   0  0  0  0  0  0  0  0  0  0  0  0
    0.8809    1.0977    0.0665 C   0  0  0  0  0  0  0  0  0  0  0  0
    0.2934    0.9462    1.3879 C   0  0  0  0  0  0  0  0  0  0  0  0
    1.4776    0.0421    1.0459 C   0  0  0  0  0  0  0  0  0  0  0  0
   -0.7791   -0.1219   -2.4672 H   0  0  0  0  0  0  0  0  0  0  0  0
   -0.3911   -2.2015   -1.1712 H   0  0  0  0  0  0  0  0  0  0  0  0
   -0.5413   -1.4462    0.3190 H   0  0  0  0  0  0  0  0  0  0  0  0
    1.8055    1.6391   -0.2212 H   0  0  0  0  0  0  0  0  0  0  0  0
    0.4526    1.3385    2.4256 H   0  0  0  0  0  0  0  0  0  0  0  0
   -0.6489    0.4080    1.5249 H   0  0  0  0  0  0  0  0  0  0  0  0
    2.4111    0.3474    1.5286 H   0  0  0  0  0  0  0  0  0  0  0  0
    1.6343   -0.8752    0.4778 H   0  0  0  0  0  0  0  0  0  0  0  0
  8 15  1  0
  8 14  1  0
  8  9  1  0
  7  8  1  0
  1  2  2  0
  5  6  3  0
  9 16  1  0
  7  9  1  0
  9 17  1  0
  2  7  1  0
  2  3  1  0
  4 12  1  0
  7 13  1  0
  4  5  1  0
  3  4  1  0
  4 11  1  0
  3 10  1  0
M  END
$$$$

     RDKit          3D

 22 24  0  0  0  0  0  0  0  0999 V2000
   -1.8597   -1.1038    0.6197 C   0  0  0  0  0  0  0  0  0  0  0  0
   -0.3498   -1.0200    0.8406 C   0  0  0  0  0  0  0  0  0  0  0  0
   -0.9519   -1.6179   -0.3600 N   0  0  0  0  0  0  0  0  0  0  0  0
   -0.7806   -0.7675   -1.5351 C   0  0  0  0  0  0  0  0  0  0  0  0
    0.7346   -0.5037   -1.7422 C   0  0  0  0  0  0  0  0  0  0  0  0
    1.3440    0.3026   -0.5986 C   0  0  0  0  0  0  0  0  0  0  0  0
    0.4574    0.2839    0.6689 C   0  0  0  0  0  0  0  0  0  0  0  0
   -0.2436    1.6410    1.0812 C   0  0  0  0  0  0  0  0  0  0  0  0
    0.9383    1.0463    1.8341 C   0  0  0  0  0  0  0  0  0  0  0  0
   -2.3827   -0.1978    0.4727 H   0  0  0  0  0  0  0  0  0  0  0  0
   -2.4382   -1.8763    1.1185 H   0  0  0  0  0  0  0  0  0  0  0  0
    0.0673   -1.7544    1.5314 H   0  0  0  0  0  0  0  0  0  0  0  0
   -1.1939   -1.2587   -2.4261 H   0  0  0  0  0  0  0  0  0  0  0  0
   -1.2780    0.2197   -1.4988 H   0  0  0  0  0  0  0  0  0  0  0  0
    0.8902    0.0301   -2.6841 H   0  0  0  0  0  0  0  0  0  0  0  0
    1.2330   -1.4968   -1.8145 H   0  0  0  0  0  0  0  0  0  0  0  0
    1.5092    1.3545   -0.8820 H   0  0  0  0  0  0  0  0  0  0  0  0
    2.3326   -0.1109   -0.3391 H   0  0  0  0  0  0  0  0  0  0  0  0
    0.0683    2.7137    1.0159 H   0  0  0  0  0  0  0  0  0  0  0  0
   -0.6828    1.8962    0.0749 H   0  0  0  0  0  0  0  0  0  0  0  0
    1.8810    1.5525    1.8045 H   0  0  0  0  0  0  0  0  0  0  0  0
    0.7055    0.6673    2.8183 H   0  0  0  0  0  0  0  0  0  0  0  0
  6 17  1  0
  5 16  1  0
  6 18  1  0
  5  6  1  0
  6  7  1  0
  5 15  1  0
  4  5  1  0
  8 19  1  0
  9 22  1  0
  4 14  1  0
  7  8  1  0
  8  9  1  0
  8 20  1  0
  7  9  1  0
  2  7  1  0
  4 13  1  0
  3  4  1  0
  9 21  1  0
  1 11  1  0
  1  2  1  0
  2  3  1  0
  2 12  1  0
  1  3  1  0
  1 10  1  0
M  END
$$$$

     RDKit          3D

 17 16  0  0  0  0  0  0  0  0999 V2000
    1.4578   -1.5028    1.0408 C   0  0  0  0  0  0  0  0  0  0  0  0
    1.6534   -0.4005    1.3835 C   0  0  0  0  0  0  0  0  0  0  0  0
    0.6595    0.8646    1.3449 C   0  0  0  0  0  0  0  0  0  0  0  0
    1.4394    0.6810    0.0540 C   0  0  0  0  0  0  0  0  0  0  0  0
   -0.4699    0.4658    0.4731 C   0  0  0  0  0  0  0  0  0  0  0  0
   -1.6031   -0.6756    0.6428 C   0  0  0  0  0  0  0  0  0  0  0  0
   -2.1737   -1.7041    0.4055 C   0  0  0  0  0  0  0  0  0  0  0  0
   -1.3987    0.7045   -0.9185 C   0  0  0  0  0  0  0  0  0  0  0  0
   -1.5298    0.3314   -2.0983 C   0  0  0  0  0  0  0  0  0  0  0  0
    0.8755   -2.1086    0.3600 H   0  0  0  0  0  0  0  0  0  0  0  0
    0.4659    2.0173    2.2818 H   0  0  0  0  0  0  0  0  0  0  0  0
    0.3228    1.8228    0.2369 H   0  0  0  0  0  0  0  0  0  0  0  0
    1.2206   -0.1557   -1.0647 H   0  0  0  0  0  0  0  0  0  0  0  0
    2.0261    1.9955   -0.2041 H   0  0  0  0  0  0  0  0  0  0  0  0
    0.1715    0.7975   -1.0878 H   0  0  0  0  0  0  0  0  0  0  0  0
   -2.7249   -2.8493   -0.4186 H   0  0  0  0  0  0  0  0  0  0  0  0
   -0.3924   -0.2837   -2.4314 H   0  0  0  0  0  0  0  0  0  0  0  0
  4 14  1  0
  5 15  1  0
  3 11  1  0
  9 17  1  0
  8  9  3  0
  5  8  1  0
  1 10  1  0
  1  2  3  0
  2  3  1  0
  3  4  1  0
  4  5  1  0
  4 13  1  0
  3 12  1  0
  5  6  1  0
  6  7  3  0
  7 16  1  0
M  END
$$$$

     RDKit          3D

 17 18  0  0  0  0  0  0  0  0999 V2000
   -1.6245    0.7350   -0.4867 C   0  0  0  0  0  0  0  0  0  0  0  0
   -0.8170   -0.4328   -0.7250 N   0  0  0  0  0  0  0  0  0  0  0  0
    0.4360   -0.1592   -1.4193 C   0  0  0  0  0  0  0  0  0  0  0  0
    1.1497   -1.0595   -0.3921 C   0  0  0  0  0  0  0  0  0  0  0  0
    1.9474   -0.4462    0.6391 O   0  0  0  0  0  0  0  0  0  0  0  0
    0.7540   -0.1584    1.4239 C   0  0  0  0  0  0  0  0  0  0  0  0
    0.5442    1.2591    1.5671 C   0  0  0  0  0  0  0  0  0  0  0  0
    0.3401    2.4084    1.5985 N   0  0  0  0  0  0  0  0  0  0  0  0
   -0.1310   -0.9828    0.4625 C   0  0  0  0  0  0  0  0  0  0  0  0
   -2.0536    0.7336    0.5261 H   0  0  0  0  0  0  0  0  0  0  0  0
   -1.1169    1.6962   -0.6523 H   0  0  0  0  0  0  0  0  0  0  0  0
   -2.4853    0.7216   -1.1770 H   0  0  0  0  0  0  0  0  0  0  0  0
    0.7911    0.8753   -1.4300 H   0  0  0  0  0  0  0  0  0  0  0  0
    0.4519   -0.5417   -2.4481 H   0  0  0  0  0  0  0  0  0  0  0  0
    1.4799   -2.0515   -0.6993 H   0  0  0  0  0  0  0  0  0  0  0  0
    0.8275   -0.6469    2.3997 H   0  0  0  0  0  0  0  0  0  0  0  0
   -0.4936   -1.9501    0.8130 H   0  0  0  0  0  0  0  0  0  0  0  0
  7  8  3  0
  1 11  1  0
  3 14  1  0
  6  7  1  0
  1  2  1  0
  1 10  1  0
  1 12  1  0
  2  3  1  0
  2  9  1  0
  3 13  1  0
  3  4  1  0
  5  6  1  0
  4  5  1  0
  6  9  1  0
  6 16  1  0
  4  9  1  0
  4 15  1  0
  9 17  1  0
M  END
$$$$

     RDKit          3D

 21 22  0  0  0  0  0  0  0  0999 V2000
   -0.0512    2.0322   -1.4032 C   0  0  0  0  0  0  0  0  0  0  0  0
    0.1635    0.5560   -1.3349 C   0  0  0  0  0  0  0  0  0  0  0  0
    1.6112    0.0842   -1.4356 C   0  0  0  0  0  0  0  0  0  0  0  0
    1.5548   -0.5523   -0.1530 O   0  0  0  0  0  0  0  0  0  0  0  0
    0.2270   -0.0422    0.0202 C   0  0  0  0  0  0  0  0  0  0  0  0
   -0.2177    0.5863    1.3115 C   0  0  0  0  0  0  0  0  0  0  0  0
   -0.7744   -0.7670    0.8036 C   0  0  0  0  0  0  0  0  0  0  0  0
   -0.4178   -2.0492    1.5646 C   0  0  0  0  0  0  0  0  0  0  0  0
   -2.1413   -0.7022    0.3318 O   0  0  0  0  0  0  0  0  0  0  0  0
    0.1074    2.3970   -2.4330 H   0  0  0  0  0  0  0  0  0  0  0  0
   -1.0726    2.3114   -1.1292 H   0  0  0  0  0  0  0  0  0  0  0  0
    0.6212    2.5731   -0.7402 H   0  0  0  0  0  0  0  0  0  0  0  0
   -0.5170    0.0285   -2.0212 H   0  0  0  0  0  0  0  0  0  0  0  0
    2.3742    0.8676   -1.4221 H   0  0  0  0  0  0  0  0  0  0  0  0
    1.8146   -0.6219   -2.2591 H   0  0  0  0  0  0  0  0  0  0  0  0
    0.7679    1.0400    1.6278 H   0  0  0  0  0  0  0  0  0  0  0  0
   -0.2480    0.3851    2.4054 H   0  0  0  0  0  0  0  0  0  0  0  0
   -1.3304   -2.6355    1.7048 H   0  0  0  0  0  0  0  0  0  0  0  0
   -0.0173   -1.8676    2.5586 H   0  0  0  0  0  0  0  0  0  0  0  0
    0.3052   -2.6407    0.9865 H   0  0  0  0  0  0  0  0  0  0  0  0
   -2.7594   -0.9826    1.0167 H   0  0  0  0  0  0  0  0  0  0  0  0
  3 14  1  0
  3 15  1  0
  1 11  1  0
  2  3  1  0
  3  4  1  0
  2 13  1  0
  1  2  1  0
  2  5  1  0
  1 10  1  0
  1 12  1  0
  4  5  1  0
  5  7  1  0
  5  6  1  0
  8 19  1  0
  8 18  1  0
  7  8  1  0
  7  9  1  0
  6  7  1  0
  8 20  1  0
  9 21  1  0
  6 17  1  0
  6 16  1  0
M  END
$$$$

     RDKit          3D

 19 19  0  0  0  0  0  0  0  0999 V2000
   -0.3207    1.7538   -0.5876 C   0  0  0  0  0  0  0  0  0  0  0  0
   -0.1224    0.2218   -0.4742 C   0  0  0  0  0  0  0  0  0  0  0  0
   -1.3565   -0.5521   -0.0396 C   0  0  0  0  0  0  0  0  0  0  0  0
   -1.7290   -0.3354    1.4053 C   0  0  0  0  0  0  0  0  0  0  0  0
   -1.9744   -1.2550    2.2408 O   0  0  0  0  0  0  0  0  0  0  0  0
    0.4184   -0.3118   -1.7137 O   0  0  0  0  0  0  0  0  0  0  0  0
    1.5578   -0.8147   -1.1332 C   0  0  0  0  0  0  0  0  0  0  0  0
    1.0919   -0.3692    0.1963 C   0  0  0  0  0  0  0  0  0  0  0  0
    1.8364    0.2362    1.2982 O   0  0  0  0  0  0  0  0  0  0  0  0
    0.5841    2.2992   -0.4216 H   0  0  0  0  0  0  0  0  0  0  0  0
   -0.9364    2.1145   -1.4234 H   0  0  0  0  0  0  0  0  0  0  0  0
   -0.8803    2.0872    0.3777 H   0  0  0  0  0  0  0  0  0  0  0  0
   -1.7257   -0.9491   -1.0644 H   0  0  0  0  0  0  0  0  0  0  0  0
   -2.3386   -0.1264   -0.1682 H   0  0  0  0  0  0  0  0  0  0  0  0
   -1.8182    0.6689    1.7111 H   0  0  0  0  0  0  0  0  0  0  0  0
    2.7562   -1.0800   -1.0731 H   0  0  0  0  0  0  0  0  0  0  0  0
    1.5861   -1.9297   -1.3900 H   0  0  0  0  0  0  0  0  0  0  0  0
    0.7858   -1.2228    0.7939 H   0  0  0  0  0  0  0  0  0  0  0  0
    2.5855   -0.4353    1.4657 H   0  0  0  0  0  0  0  0  0  0  0  0
  4 15  1  0
  4  5  2  0
  3  4  1  0
  2  6  1  0
  6  7  1  0
  1 11  1  0
  3 13  1  0
  2  3  1  0
  3 14  1  0
  7 16  1  0
  1  2  1  0
  2  8  1  0
  1 10  1  0
  1 12  1  0
  7 17  1  0
  7  8  1  0
  8 18  1  0
  8  9  1  0
  9 19  1  0
M  END
$$$$

     RDKit          3D

 18 18  0  0  0  0  0  0  0  0999 V2000
   -1.3596   -0.8832   -0.5329 C   0  0  0  0  0  0  0  0  0  0  0  0
   -0.4367    0.2933   -0.1422 C   0  0  0  0  0  0  0  0  0  0  0  0
   -1.3230    1.6960   -0.3578 C   0  0  0  0  0  0  0  0  0  0  0  0
    0.6626    0.4330   -1.1310 O   0  0  0  0  0  0  0  0  0  0  0  0
    1.5695    0.7099   -0.0569 C   0  0  0  0  0  0  0  0  0  0  0  0
    0.6567    0.0270    0.9657 C   0  0  0  0  0  0  0  0  0  0  0  0
    1.0191   -1.4265    1.1867 C   0  0  0  0  0  0  0  0  0  0  0  0
    1.4894   -2.3844    0.7175 C   0  0  0  0  0  0  0  0  0  0  0  0
   -0.9841   -1.8902   -0.3025 H   0  0  0  0  0  0  0  0  0  0  0  0
   -2.2638   -0.7768    0.1908 H   0  0  0  0  0  0  0  0  0  0  0  0
   -1.5964   -0.8391   -1.5878 H   0  0  0  0  0  0  0  0  0  0  0  0
   -2.2373    1.6020    0.1590 H   0  0  0  0  0  0  0  0  0  0  0  0
   -1.3793    1.7129   -1.3935 H   0  0  0  0  0  0  0  0  0  0  0  0
   -0.6953    2.4953    0.0620 H   0  0  0  0  0  0  0  0  0  0  0  0
    1.8597    1.8010    0.0172 H   0  0  0  0  0  0  0  0  0  0  0  0
    2.4648    0.0678   -0.1772 H   0  0  0  0  0  0  0  0  0  0  0  0
    0.5311    0.6351    1.9924 H   0  0  0  0  0  0  0  0  0  0  0  0
    2.0226   -3.2732    0.3906 H   0  0  0  0  0  0  0  0  0  0  0  0
  3 12  1  0
  1 10  1  0
  2  4  1  0
  4  5  1  0
  3 13  1  0
  2  3  1  0
  3 14  1  0
  1  2  1  0
  1  9  1  0
  1 11  1  0
  2  6  1  0
  5 15  1  0
  5 16  1  0
  5  6  1  0
  6 17  1  0
  6  7  1  0
  7  8  3  0
  8 18  1  0
M  END
$$$$

     RDKit          3D

 16 17  0  0  0  0  0  0  0  0999 V2000
   -0.5786   -2.2809   -1.9182 O   0  0  0  0  0  0  0  0  0  0  0  0
   -0.2694   -1.3449   -1.1905 C   0  0  0  0  0  0  0  0  0  0  0  0
   -1.1410   -0.8915   -0.0337 C   0  0  0  0  0  0  0  0  0  0  0  0
   -0.5562    0.2881    0.7413 C   0  0  0  0  0  0  0  0  0  0  0  0
   -0.0651    1.4013   -0.2231 C   0  0  0  0  0  0  0  0  0  0  0  0
    1.1370    0.4379   -0.4412 C   0  0  0  0  0  0  0  0  0  0  0  0
    0.9470    0.0603    1.0564 C   0  0  0  0  0  0  0  0  0  0  0  0
    0.8860   -0.6401   -1.3718 O   0  0  0  0  0  0  0  0  0  0  0  0
   -2.1189   -0.6119   -0.4403 H   0  0  0  0  0  0  0  0  0  0  0  0
   -1.2714   -1.7436    0.6425 H   0  0  0  0  0  0  0  0  0  0  0  0
   -1.1742    0.6220    1.5788 H   0  0  0  0  0  0  0  0  0  0  0  0
    0.1904    2.3525    0.2581 H   0  0  0  0  0  0  0  0  0  0  0  0
   -0.6924    1.6030   -1.0955 H   0  0  0  0  0  0  0  0  0  0  0  0
    2.0850    0.9312   -0.6742 H   0  0  0  0  0  0  0  0  0  0  0  0
    1.3844    0.7704    1.7677 H   0  0  0  0  0  0  0  0  0  0  0  0
    1.2374   -0.9539    1.3438 H   0  0  0  0  0  0  0  0  0  0  0  0
  5 13  1  0
  5 12  1  0
  5  6  1  0
  4  5  1  0
  6 14  1  0
  4 11  1  0
  6  8  1  0
  6  7  1  0
  3  4  1  0
  4  7  1  0
  3  9  1  0
  7 15  1  0
  2  8  1  0
  2  3  1  0
  3 10  1  0
  7 16  1  0
  1  2  2  0
M  END
$$$$

     RDKit          3D

 20 22  0  0  0  0  0  0  0  0999 V2000
    0.5100    2.3143    0.6709 C   0  0  0  0  0  0  0  0  0  0  0  0
    0.3513    0.8874    0.1193 C   0  0  0  0  0  0  0  0  0  0  0  0
   -0.4455    0.6710   -1.2373 C   0  0  0  0  0  0  0  0  0  0  0  0
   -1.4929   -0.0832   -0.5083 N   0  0  0  0  0  0  0  0  0  0  0  0
   -1.1850   -1.5572   -0.5661 C   0  0  0  0  0  0  0  0  0  0  0  0
   -0.0929   -1.4474    0.5175 C   0  0  0  0  0  0  0  0  0  0  0  0
    1.3798   -1.2717    0.1495 C   0  0  0  0  0  0  0  0  0  0  0  0
    1.6091    0.1716    0.2446 O   0  0  0  0  0  0  0  0  0  0  0  0
   -0.6985   -0.0289    0.7481 C   0  0  0  0  0  0  0  0  0  0  0  0
   -0.4761    2.7881    0.7160 H   0  0  0  0  0  0  0  0  0  0  0  0
    0.9776    2.3292    1.6518 H   0  0  0  0  0  0  0  0  0  0  0  0
    1.1035    2.8875   -0.0384 H   0  0  0  0  0  0  0  0  0  0  0  0
    0.1167    0.0735   -2.0056 H   0  0  0  0  0  0  0  0  0  0  0  0
   -0.8404    1.5421   -1.8119 H   0  0  0  0  0  0  0  0  0  0  0  0
   -2.0651   -2.0833   -0.1759 H   0  0  0  0  0  0  0  0  0  0  0  0
   -0.9209   -2.0162   -1.5044 H   0  0  0  0  0  0  0  0  0  0  0  0
   -0.2312   -2.1387    1.3703 H   0  0  0  0  0  0  0  0  0  0  0  0
    2.0445   -1.7706    0.8571 H   0  0  0  0  0  0  0  0  0  0  0  0
    1.5251   -1.4998   -0.8832 H   0  0  0  0  0  0  0  0  0  0  0  0
   -1.1690    0.2323    1.6859 H   0  0  0  0  0  0  0  0  0  0  0  0
  3 13  1  0
  3 14  1  0
  3  4  1  0
  2  3  1  0
  4  5  1  0
  4  9  1  0
  5 15  1  0
  1 11  1  0
  5 16  1  0
  5  6  1  0
  9 20  1  0
  2  9  1  0
  6  9  1  0
  1  2  1  0
  2  8  1  0
  1 10  1  0
  1 12  1  0
  6 17  1  0
  6  7  1  0
  7  8  1  0
  7 19  1  0
  7 18  1  0
M  END
$$$$

     RDKit          3D

 23 23  0  0  0  0  0  0  0  0999 V2000
    0.5323    1.5799    2.0734 C   0  0  0  0  0  0  0  0  0  0  0  0
    0.9115    0.5738    0.9869 C   0  0  0  0  0  0  0  0  0  0  0  0
   -0.3045   -0.0990    0.3339 C   0  0  0  0  0  0  0  0  0  0  0  0
   -0.7697    0.3660   -0.9475 C   0  0  0  0  0  0  0  0  0  0  0  0
   -1.3721    1.7894   -0.8741 C   0  0  0  0  0  0  0  0  0  0  0  0
   -0.2157   -1.3584   -0.3966 C   0  0  0  0  0  0  0  0  0  0  0  0
   -0.2756   -2.1694   -1.8877 C   0  0  0  0  0  0  0  0  0  0  0  0
    1.1004   -1.9252    0.1802 C   0  0  0  0  0  0  0  0  0  0  0  0
    1.2729   -2.8456    0.9874 O   0  0  0  0  0  0  0  0  0  0  0  0
    0.0747    2.4610    1.6267 H   0  0  0  0  0  0  0  0  0  0  0  0
   -0.1809    1.1208    2.7785 H   0  0  0  0  0  0  0  0  0  0  0  0
    1.4366    1.8990    2.6401 H   0  0  0  0  0  0  0  0  0  0  0  0
    1.4444   -0.2061    1.5647 H   0  0  0  0  0  0  0  0  0  0  0  0
    1.5725    0.9687    0.2122 H   0  0  0  0  0  0  0  0  0  0  0  0
   -0.9443   -0.3541    1.2042 H   0  0  0  0  0  0  0  0  0  0  0  0
   -0.9970    0.1221   -1.9919 H   0  0  0  0  0  0  0  0  0  0  0  0
   -1.8954    1.9631   -1.8496 H   0  0  0  0  0  0  0  0  0  0  0  0
   -0.3723    2.4156   -0.6140 H   0  0  0  0  0  0  0  0  0  0  0  0
   -2.2450    1.8540   -0.1242 H   0  0  0  0  0  0  0  0  0  0  0  0
    0.0601   -1.2668   -2.3537 H   0  0  0  0  0  0  0  0  0  0  0  0
    0.4637   -2.9761   -1.6185 H   0  0  0  0  0  0  0  0  0  0  0  0
   -1.2940   -2.5472   -1.7346 H   0  0  0  0  0  0  0  0  0  0  0  0
    1.9973   -1.3654   -0.1957 H   0  0  0  0  0  0  0  0  0  0  0  0
  5 19  1  0
  5 18  1  0
  5 17  1  0
  4  5  1  0
  1 11  1  0
  1 10  1  0
  1 12  1  0
  1  2  1  0
  4 16  1  0
  3  4  1  0
  4  6  1  0
  2 13  1  0
  2  3  1  0
  2 14  1  0
  7 20  1  0
  3 15  1  0
  3  6  1  0
  6  7  1  0
  6  8  1  0
  7 22  1  0
  7 21  1  0
  8  9  2  0
  8 23  1  0
M  END
$$$$

     RDKit          3D

 13 14  0  0  0  0  0  0  0  0999 V2000
    1.8624    1.5865    0.5874 N   0  0  0  0  0  0  0  0  0  0  0  0
    1.3322    0.7377   -0.4619 C   0  0  0  0  0  0  0  0  0  0  0  0
    1.9515   -0.5837   -0.5366 O   0  0  0  0  0  0  0  0  0  0  0  0
    0.6413   -1.2113   -0.5258 C   0  0  0  0  0  0  0  0  0  0  0  0
   -0.0531   -1.1951    0.7986 C   0  0  0  0  0  0  0  0  0  0  0  0
    0.0567    0.0793   -0.0399 C   0  0  0  0  0  0  0  0  0  0  0  0
   -1.1804    0.6299   -0.4562 C   0  0  0  0  0  0  0  0  0  0  0  0
   -2.3198    0.9933   -0.6267 C   0  0  0  0  0  0  0  0  0  0  0  0
    1.2745    2.4046    0.7637 H   0  0  0  0  0  0  0  0  0  0  0  0
    0.2634   -1.6905   -1.4132 H   0  0  0  0  0  0  0  0  0  0  0  0
   -1.0284   -1.6779    0.8539 H   0  0  0  0  0  0  0  0  0  0  0  0
    0.5542   -1.3175    1.6881 H   0  0  0  0  0  0  0  0  0  0  0  0
   -3.3545    1.2448   -0.6315 H   0  0  0  0  0  0  0  0  0  0  0  0
  8 13  1  0
  7  8  3  0
  6  7  1  0
  4 10  1  0
  4  6  1  0
  2  6  1  0
  5  6  1  0
  3  4  1  0
  4  5  1  0
  1  2  1  0
  1  9  1  0
  2  3  1  0
  5 11  1  0
  5 12  1  0
M  END
$$$$

     RDKit          3D

 18 18  0  0  0  0  0  0  0  0999 V2000
    0.4729    2.4174    0.0037 C   0  0  0  0  0  0  0  0  0  0  0  0
   -0.5045    1.4338   -0.3565 O   0  0  0  0  0  0  0  0  0  0  0  0
    0.0385    0.2723   -1.0824 C   0  0  0  0  0  0  0  0  0  0  0  0
    0.2606   -1.0879   -0.3803 C   0  0  0  0  0  0  0  0  0  0  0  0
    0.3788   -1.0780    1.1379 C   0  0  0  0  0  0  0  0  0  0  0  0
    1.7063   -0.5579    1.3441 O   0  0  0  0  0  0  0  0  0  0  0  0
   -1.0105   -0.7933   -1.1754 C   0  0  0  0  0  0  0  0  0  0  0  0
   -2.2337   -0.8689   -0.4026 C   0  0  0  0  0  0  0  0  0  0  0  0
   -3.2651   -1.0007    0.1372 N   0  0  0  0  0  0  0  0  0  0  0  0
   -0.0504    3.2268    0.5163 H   0  0  0  0  0  0  0  0  0  0  0  0
    1.1297    1.9087    0.7495 H   0  0  0  0  0  0  0  0  0  0  0  0
    1.0451    2.7295   -0.8762 H   0  0  0  0  0  0  0  0  0  0  0  0
    0.7162    0.4392   -1.9276 H   0  0  0  0  0  0  0  0  0  0  0  0
    0.2678   -2.1842   -0.6580 H   0  0  0  0  0  0  0  0  0  0  0  0
   -0.4349   -0.5497    1.6653 H   0  0  0  0  0  0  0  0  0  0  0  0
    0.4086   -2.0881    1.4701 H   0  0  0  0  0  0  0  0  0  0  0  0
    2.1752   -1.0587    2.0320 H   0  0  0  0  0  0  0  0  0  0  0  0
   -1.1007   -1.1603   -2.1972 H   0  0  0  0  0  0  0  0  0  0  0  0
  7 18  1  0
  3 13  1  0
  3  7  1  0
  7  8  1  0
  4  7  1  0
  4 14  1  0
  3  4  1  0
  2  3  1  0
  8  9  3  0
  4  5  1  0
  1 10  1  0
  1 11  1  0
  1  2  1  0
  1 12  1  0
  6 17  1  0
  5  6  1  0
  5 15  1  0
  5 16  1  0
M  END
$$$$

     RDKit          3D

 17 20  0  0  0  0  0  0  0  0999 V2000
   -0.6526    1.5888   -0.2758 C   0  0  0  0  0  0  0  0  0  0  0  0
    0.0459    1.2568   -1.5712 C   0  0  0  0  0  0  0  0  0  0  0  0
    0.6992    0.0767   -1.5534 C   0  0  0  0  0  0  0  0  0  0  0  0
    0.2857   -0.8173   -0.4739 C   0  0  0  0  0  0  0  0  0  0  0  0
   -0.7035   -0.9955    0.4488 C   0  0  0  0  0  0  0  0  0  0  0  0
    1.3133   -0.8532    0.9833 N   0  0  0  0  0  0  0  0  0  0  0  0
    0.3635   -1.7702    1.2540 C   0  0  0  0  0  0  0  0  0  0  0  0
   -0.4908   -0.2786    1.6774 C   0  0  0  0  0  0  0  0  0  0  0  0
    0.1052    0.7441    0.6176 N   0  0  0  0  0  0  0  0  0  0  0  0
   -1.7433    1.4243   -0.3432 H   0  0  0  0  0  0  0  0  0  0  0  0
   -0.4767    2.6290   -0.0187 H   0  0  0  0  0  0  0  0  0  0  0  0
    0.0913    1.9500   -2.3828 H   0  0  0  0  0  0  0  0  0  0  0  0
    1.2721   -0.3121   -2.3847 H   0  0  0  0  0  0  0  0  0  0  0  0
   -1.4897   -0.5505   -0.1682 H   0  0  0  0  0  0  0  0  0  0  0  0
    2.0119   -1.2242    0.3266 H   0  0  0  0  0  0  0  0  0  0  0  0
    0.7961   -2.6908    1.7051 H   0  0  0  0  0  0  0  0  0  0  0  0
   -1.4278   -0.1773    2.1592 H   0  0  0  0  0  0  0  0  0  0  0  0
  1 11  1  0
  2 12  1  0
  1  9  1  0
  1  2  1  0
  1 10  1  0
  4  9  1  0
  8  9  1  0
  2  3  2  0
  5 14  1  0
  3  4  1  0
  3 13  1  0
  4  5  1  0
  4  7  1  0
  8 17  1  0
  5  8  1  0
  7  8  1  0
  5  6  1  0
  6  7  1  0
  7 16  1  0
  6 15  1  0
M  END
$$$$

     RDKit          3D

 25 26  0  0  0  0  0  0  0  0999 V2000
    1.2117    2.1915    0.7350 C   0  0  0  0  0  0  0  0  0  0  0  0
   -0.0620    1.6486    1.3129 C   0  0  0  0  0  0  0  0  0  0  0  0
   -0.2178    0.1414    1.3117 C   0  0  0  0  0  0  0  0  0  0  0  0
   -1.2144   -0.8074    0.4636 C   0  0  0  0  0  0  0  0  0  0  0  0
   -0.2229   -1.9209    0.9259 C   0  0  0  0  0  0  0  0  0  0  0  0
    0.7509   -0.7673    0.4340 C   0  0  0  0  0  0  0  0  0  0  0  0
   -0.2559   -0.6105   -0.8073 C   0  0  0  0  0  0  0  0  0  0  0  0
   -0.0573   -1.7814   -1.8238 C   0  0  0  0  0  0  0  0  0  0  0  0
   -0.5559    0.6703   -1.6084 C   0  0  0  0  0  0  0  0  0  0  0  0
    1.2620    2.1287   -0.3512 H   0  0  0  0  0  0  0  0  0  0  0  0
    2.0879    1.7171    1.1373 H   0  0  0  0  0  0  0  0  0  0  0  0
    1.3118    3.2489    1.0046 H   0  0  0  0  0  0  0  0  0  0  0  0
   -0.9612    2.1383    0.9537 H   0  0  0  0  0  0  0  0  0  0  0  0
   -0.0472    1.9710    2.3816 H   0  0  0  0  0  0  0  0  0  0  0  0
   -0.2220   -0.1304    2.3753 H   0  0  0  0  0  0  0  0  0  0  0  0
   -2.3082   -0.7626    0.5317 H   0  0  0  0  0  0  0  0  0  0  0  0
   -0.1846   -2.8619    0.4049 H   0  0  0  0  0  0  0  0  0  0  0  0
   -0.2117   -2.1569    1.9976 H   0  0  0  0  0  0  0  0  0  0  0  0
    1.8352   -0.7829    0.4471 H   0  0  0  0  0  0  0  0  0  0  0  0
   -0.9970   -2.2478   -2.0770 H   0  0  0  0  0  0  0  0  0  0  0  0
    0.3951   -1.4316   -2.7501 H   0  0  0  0  0  0  0  0  0  0  0  0
    0.6558   -2.5186   -1.4755 H   0  0  0  0  0  0  0  0  0  0  0  0
   -1.3659    0.4251   -2.2564 H   0  0  0  0  0  0  0  0  0  0  0  0
   -0.9164    1.5121   -1.0281 H   0  0  0  0  0  0  0  0  0  0  0  0
    0.2901    0.9872   -2.2388 H   0  0  0  0  0  0  0  0  0  0  0  0
  9 24  1  0
  9 25  1  0
  4 16  1  0
  5 17  1  0
  9 23  1  0
  7  9  1  0
  4  5  1  0
  4  7  1  0
  3  4  1  0
  5 18  1  0
  5  6  1  0
  8 21  1  0
  7  8  1  0
  6  7  1  0
  1 11  1  0
  8 22  1  0
  8 20  1  0
  3  6  1  0
  6 19  1  0
  2  3  1  0
  3 15  1  0
  2 13  1  0
  1  2  1  0
  1 10  1  0
  1 12  1  0
  2 14  1  0
M  END
$$$$

     RDKit          3D

 19 21  0  0  0  0  0  0  0  0999 V2000
   -0.5505    1.8994    0.9564 C   0  0  0  0  0  0  0  0  0  0  0  0
   -0.4402    0.6434    0.1833 C   0  0  0  0  0  0  0  0  0  0  0  0
   -1.5656    0.3185   -0.7731 C   0  0  0  0  0  0  0  0  0  0  0  0
   -1.1874   -0.8484   -1.3479 C   0  0  0  0  0  0  0  0  0  0  0  0
    0.0430   -1.2030   -0.6749 C   0  0  0  0  0  0  0  0  0  0  0  0
    0.7028   -2.4221   -1.0270 O   0  0  0  0  0  0  0  0  0  0  0  0
   -0.0646   -0.7817    0.8612 C   0  0  0  0  0  0  0  0  0  0  0  0
    1.4736   -0.4278    0.7695 C   0  0  0  0  0  0  0  0  0  0  0  0
    0.9168    0.1215   -0.5760 C   0  0  0  0  0  0  0  0  0  0  0  0
    0.4335    2.0892    1.4162 H   0  0  0  0  0  0  0  0  0  0  0  0
   -0.6925    2.7443    0.2670 H   0  0  0  0  0  0  0  0  0  0  0  0
   -1.3439    1.8816    1.7583 H   0  0  0  0  0  0  0  0  0  0  0  0
   -2.3566    1.0431   -0.9549 H   0  0  0  0  0  0  0  0  0  0  0  0
   -1.7620   -1.3570   -2.1036 H   0  0  0  0  0  0  0  0  0  0  0  0
    1.6119   -2.1933   -1.1756 H   0  0  0  0  0  0  0  0  0  0  0  0
   -0.6943   -1.1814    1.6357 H   0  0  0  0  0  0  0  0  0  0  0  0
    2.2309   -1.2670    0.6439 H   0  0  0  0  0  0  0  0  0  0  0  0
    1.9041    0.2747    1.5207 H   0  0  0  0  0  0  0  0  0  0  0  0
    1.3410    0.6659   -1.3789 H   0  0  0  0  0  0  0  0  0  0  0  0
  3 13  1  0
  4 14  1  0
  3  4  2  0
  2  3  1  0
  4  5  1  0
  1 11  1  0
  1 10  1  0
  1  2  1  0
  1 12  1  0
  2  9  1  0
  2  7  1  0
  9 19  1  0
  5  9  1  0
  5  6  1  0
  5  7  1  0
  8  9  1  0
  6 15  1  0
  7 16  1  0
  7  8  1  0
  8 18  1  0
  8 17  1  0
M  END
$$$$

     RDKit          3D

 19 21  0  0  0  0  0  0  0  0999 V2000
   -1.0484    1.9268    0.8547 C   0  0  0  0  0  0  0  0  0  0  0  0
   -0.2594    0.8236    0.2546 C   0  0  0  0  0  0  0  0  0  0  0  0
   -0.5634    0.4117   -1.1910 C   0  0  0  0  0  0  0  0  0  0  0  0
   -0.3987   -1.1305   -1.1677 C   0  0  0  0  0  0  0  0  0  0  0  0
    0.4737   -1.3675    0.0100 C   0  0  0  0  0  0  0  0  0  0  0  0
    1.1048   -2.7301    0.0254 O   0  0  0  0  0  0  0  0  0  0  0  0
    1.5186   -0.2538    0.4880 C   0  0  0  0  0  0  0  0  0  0  0  0
    1.1841    1.1342    0.2638 O   0  0  0  0  0  0  0  0  0  0  0  0
    0.1139   -0.3880    1.0232 C   0  0  0  0  0  0  0  0  0  0  0  0
   -0.8855    2.9096    0.3643 H   0  0  0  0  0  0  0  0  0  0  0  0
   -2.1123    1.7052    0.9360 H   0  0  0  0  0  0  0  0  0  0  0  0
   -0.6879    2.1362    1.8398 H   0  0  0  0  0  0  0  0  0  0  0  0
    0.2480    0.7827   -1.8994 H   0  0  0  0  0  0  0  0  0  0  0  0
   -1.5157    0.7694   -1.6391 H   0  0  0  0  0  0  0  0  0  0  0  0
    0.0729   -1.5520   -2.1817 H   0  0  0  0  0  0  0  0  0  0  0  0
   -1.4223   -1.6135   -1.0593 H   0  0  0  0  0  0  0  0  0  0  0  0
    2.1052   -2.6071   -0.2162 H   0  0  0  0  0  0  0  0  0  0  0  0
    2.2445   -0.5530    1.2230 H   0  0  0  0  0  0  0  0  0  0  0  0
   -0.1720   -0.4037    2.0715 H   0  0  0  0  0  0  0  0  0  0  0  0
  4 15  1  0
  3 13  1  0
  3  4  1  0
  3 14  1  0
  2  3  1  0
  4 16  1  0
  4  5  1  0
  1 11  1  0
  5  6  1  0
  6 17  1  0
  5  9  1  0
  5  7  1  0
  9 19  1  0
  2  9  1  0
  7  9  1  0
  1  2  1  0
  2  8  1  0
  1 10  1  0
  1 12  1  0
  7  8  1  0
  7 18  1  0
M  END
$$$$

     RDKit          3D

 16 16  0  0  0  0  0  0  0  0999 V2000
   -1.2337    2.3154   -0.6934 C   0  0  0  0  0  0  0  0  0  0  0  0
   -0.5399    1.0816   -0.2895 C   0  0  0  0  0  0  0  0  0  0  0  0
   -0.9354   -0.1744   -0.4807 N   0  0  0  0  0  0  0  0  0  0  0  0
    0.0301   -0.9939    0.0415 C   0  0  0  0  0  0  0  0  0  0  0  0
   -0.1235   -2.4791    0.0345 C   0  0  0  0  0  0  0  0  0  0  0  0
    1.0693   -0.2270    0.5513 C   0  0  0  0  0  0  0  0  0  0  0  0
    2.2124   -0.4903    1.1689 O   0  0  0  0  0  0  0  0  0  0  0  0
    0.6356    1.0730    0.4227 N   0  0  0  0  0  0  0  0  0  0  0  0
   -2.2567    2.3016   -0.2875 H   0  0  0  0  0  0  0  0  0  0  0  0
   -0.7063    3.2135   -0.3647 H   0  0  0  0  0  0  0  0  0  0  0  0
   -1.3020    2.3635   -1.8019 H   0  0  0  0  0  0  0  0  0  0  0  0
   -0.8529   -2.8223   -0.6920 H   0  0  0  0  0  0  0  0  0  0  0  0
   -0.4647   -2.8168    1.0297 H   0  0  0  0  0  0  0  0  0  0  0  0
    0.8366   -2.9825   -0.1838 H   0  0  0  0  0  0  0  0  0  0  0  0
    2.5649   -1.2609    0.6721 H   0  0  0  0  0  0  0  0  0  0  0  0
    1.0661    1.8985    0.8729 H   0  0  0  0  0  0  0  0  0  0  0  0
  5 14  1  0
  5 13  1  0
  5 12  1  0
  4  5  1  0
  3  4  1  0
  2  3  2  0
  1 10  1  0
  4  6  2  0
  1  2  1  0
  2  8  1  0
  1  9  1  0
  1 11  1  0
  6  8  1  0
  6  7  1  0
  8 16  1  0
  7 15  1  0
M  END
$$$$

     RDKit          3D

 20 19  0  0  0  0  0  0  0  0999 V2000
   -0.6862    2.3804    0.4986 C   0  0  0  0  0  0  0  0  0  0  0  0
   -0.0897    1.7496   -0.6570 N   0  0  0  0  0  0  0  0  0  0  0  0
    0.9025    0.8072   -0.5632 C   0  0  0  0  0  0  0  0  0  0  0  0
    1.9502    1.0333   -1.1723 O   0  0  0  0  0  0  0  0  0  0  0  0
    0.6456   -0.3900    0.1101 N   0  0  0  0  0  0  0  0  0  0  0  0
    1.6572   -1.4178   -0.1078 C   0  0  0  0  0  0  0  0  0  0  0  0
   -0.6100   -0.8492    0.4389 C   0  0  0  0  0  0  0  0  0  0  0  0
   -1.2999   -1.7746   -0.5258 C   0  0  0  0  0  0  0  0  0  0  0  0
   -1.0995   -0.5851    1.6013 N   0  0  0  0  0  0  0  0  0  0  0  0
   -1.1739    3.2932    0.1494 H   0  0  0  0  0  0  0  0  0  0  0  0
    0.0948    2.6311    1.2545 H   0  0  0  0  0  0  0  0  0  0  0  0
   -1.4382    1.7329    0.9734 H   0  0  0  0  0  0  0  0  0  0  0  0
    0.2564    2.4550   -1.2997 H   0  0  0  0  0  0  0  0  0  0  0  0
    1.7243   -1.6026   -1.1864 H   0  0  0  0  0  0  0  0  0  0  0  0
    2.6345   -1.0833    0.2677 H   0  0  0  0  0  0  0  0  0  0  0  0
    1.3715   -2.3508    0.4146 H   0  0  0  0  0  0  0  0  0  0  0  0
   -2.3900   -1.6575   -0.4299 H   0  0  0  0  0  0  0  0  0  0  0  0
   -1.0219   -2.8081   -0.2800 H   0  0  0  0  0  0  0  0  0  0  0  0
   -1.0189   -1.5633   -1.5721 H   0  0  0  0  0  0  0  0  0  0  0  0
   -0.4086   -0.0004    2.0859 H   0  0  0  0  0  0  0  0  0  0  0  0
  8 17  1  0
  1 10  1  0
  8 18  1  0
  8 19  1  0
  7  8  1  0
  3  4  2  0
  1 11  1  0
  1 12  1  0
  1  2  1  0
  2  3  1  0
  3  5  1  0
  2 13  1  0
  5  7  1  0
  7  9  2  3
  5  6  1  0
  9 20  1  0
  6 16  1  0
  6 14  1  0
  6 15  1  0
M  END
$$$$

     RDKit          3D

 18 18  0  0  0  0  0  0  0  0999 V2000
    0.5085    2.0594    1.0091 C   0  0  0  0  0  0  0  0  0  0  0  0
    0.7607    0.6252    0.5657 C   0  0  0  0  0  0  0  0  0  0  0  0
   -0.4829   -0.0887    0.0255 C   0  0  0  0  0  0  0  0  0  0  0  0
   -0.8410    0.4060   -1.3060 O   0  0  0  0  0  0  0  0  0  0  0  0
   -0.1820   -0.7494   -1.9029 C   0  0  0  0  0  0  0  0  0  0  0  0
   -0.2461   -1.5019   -0.5715 C   0  0  0  0  0  0  0  0  0  0  0  0
    0.9097   -2.2641   -0.1633 O   0  0  0  0  0  0  0  0  0  0  0  0
   -1.6257   -0.0346    0.9290 C   0  0  0  0  0  0  0  0  0  0  0  0
   -2.5244   -0.0503    1.6676 N   0  0  0  0  0  0  0  0  0  0  0  0
    1.4622    2.5947    1.0899 H   0  0  0  0  0  0  0  0  0  0  0  0
   -0.1174    2.5993    0.3016 H   0  0  0  0  0  0  0  0  0  0  0  0
    0.0051    2.0943    1.9835 H   0  0  0  0  0  0  0  0  0  0  0  0
    1.5194    0.6605   -0.2222 H   0  0  0  0  0  0  0  0  0  0  0  0
    1.2172    0.0424    1.3746 H   0  0  0  0  0  0  0  0  0  0  0  0
    0.8220   -0.5101   -2.2746 H   0  0  0  0  0  0  0  0  0  0  0  0
   -0.7643   -1.2092   -2.7233 H   0  0  0  0  0  0  0  0  0  0  0  0
   -1.1239   -2.1398   -0.5225 H   0  0  0  0  0  0  0  0  0  0  0  0
    0.7028   -2.5338    0.7398 H   0  0  0  0  0  0  0  0  0  0  0  0
  8  9  3  0
  3  8  1  0
  6 17  1  0
  5 15  1  0
  5  6  1  0
  3  6  1  0
  6  7  1  0
  4  5  1  0
  5 16  1  0
  3  4  1  0
  2  3  1  0
  7 18  1  0
  1 11  1  0
  2 14  1  0
  1  2  1  0
  2 13  1  0
  1 10  1  0
  1 12  1  0
M  END
$$$$

     RDKit          3D

 14 16  0  0  0  0  0  0  0  0999 V2000
    0.4718   -2.9240   -0.6906 O   0  0  0  0  0  0  0  0  0  0  0  0
    0.4622   -1.8704   -0.0438 C   0  0  0  0  0  0  0  0  0  0  0  0
    0.0083   -1.8327    1.3071 N   0  0  0  0  0  0  0  0  0  0  0  0
    0.3261   -0.5256    1.8660 N   0  0  0  0  0  0  0  0  0  0  0  0
    1.0852    0.1743    0.8100 C   0  0  0  0  0  0  0  0  0  0  0  0
    0.3418    1.3556    0.2457 C   0  0  0  0  0  0  0  0  0  0  0  0
   -0.1360    1.7356   -1.1446 C   0  0  0  0  0  0  0  0  0  0  0  0
   -0.2749    0.3176   -0.7142 C   0  0  0  0  0  0  0  0  0  0  0  0
    0.8194   -0.5810   -0.4507 N   0  0  0  0  0  0  0  0  0  0  0  0
   -1.0250   -1.9874    1.2969 H   0  0  0  0  0  0  0  0  0  0  0  0
   -0.2609    1.7761    1.0919 H   0  0  0  0  0  0  0  0  0  0  0  0
   -1.0761    2.3442   -1.1172 H   0  0  0  0  0  0  0  0  0  0  0  0
    0.5513    1.9911   -1.9536 H   0  0  0  0  0  0  0  0  0  0  0  0
   -1.2932    0.0266   -0.5029 H   0  0  0  0  0  0  0  0  0  0  0  0
  3 10  1  0
  2  9  1  0
  5  9  1  0
  8  9  1  0
  2  3  1  0
  3  4  1  0
  1  2  2  0
  8 14  1  0
  4  5  1  0
  5  6  1  0
  6 11  1  0
  6  8  1  0
  7  8  1  0
  6  7  1  0
  7 12  1  0
  7 13  1  0
M  END
$$$$

     RDKit          3D

 20 21  0  0  0  0  0  0  0  0999 V2000
    0.7174    1.6485    2.1117 C   0  0  0  0  0  0  0  0  0  0  0  0
   -0.5876    0.4485    2.3026 C   0  0  0  0  0  0  0  0  0  0  0  0
   -0.1738    0.2907    0.7646 N   0  0  0  0  0  0  0  0  0  0  0  0
   -0.3877   -1.0545    0.0856 C   0  0  0  0  0  0  0  0  0  0  0  0
    1.0272   -0.7724   -0.1446 C   0  0  0  0  0  0  0  0  0  0  0  0
    0.3428   -1.2267   -1.9199 C   0  0  0  0  0  0  0  0  0  0  0  0
    0.2452   -0.3621   -3.1975 O   0  0  0  0  0  0  0  0  0  0  0  0
   -0.7682   -0.3170   -1.2093 C   0  0  0  0  0  0  0  0  0  0  0  0
   -0.5538    1.1643   -1.6427 O   0  0  0  0  0  0  0  0  0  0  0  0
   -0.5390    1.8303    2.6240 H   0  0  0  0  0  0  0  0  0  0  0  0
    1.3705    0.7026    2.5619 H   0  0  0  0  0  0  0  0  0  0  0  0
    1.3399    2.1401    2.9581 H   0  0  0  0  0  0  0  0  0  0  0  0
   -0.0934    0.2633    3.2108 H   0  0  0  0  0  0  0  0  0  0  0  0
   -0.7274   -0.7340    2.0579 H   0  0  0  0  0  0  0  0  0  0  0  0
    0.0095   -2.1635    0.0389 H   0  0  0  0  0  0  0  0  0  0  0  0
    1.8627   -0.0757   -1.0661 H   0  0  0  0  0  0  0  0  0  0  0  0
   -1.0503   -2.1017   -1.9220 H   0  0  0  0  0  0  0  0  0  0  0  0
    1.0230   -0.5064   -3.7137 H   0  0  0  0  0  0  0  0  0  0  0  0
   -2.0447   -0.1167   -1.3146 H   0  0  0  0  0  0  0  0  0  0  0  0
   -1.0122    0.9424   -2.5858 H   0  0  0  0  0  0  0  0  0  0  0  0
  9 20  1  0
  8  9  1  0
  8 19  1  0
  4  8  1  0
  6  8  1  0
  4 15  1  0
  1 11  1  0
  3  4  1  0
  4  5  1  0
  7 18  1  0
  6  7  1  0
  6 17  1  0
  5  6  1  0
  1 10  1  0
  1 12  1  0
  1  2  1  0
  2 13  1  0
  3  5  1  0
  2  3  1  0
  5 16  1  0
  2 14  1  0
M  END
$$$$

     RDKit          3D

 22 23  0  0  0  0  0  0  0  0999 V2000
   -1.1790    1.8826   -1.1853 C   0  0  0  0  0  0  0  0  0  0  0  0
   -0.8726    0.4654   -0.6959 C   0  0  0  0  0  0  0  0  0  0  0  0
    0.4503   -0.0902   -1.2715 C   0  0  0  0  0  0  0  0  0  0  0  0
    0.2851   -0.6713   -2.5547 O   0  0  0  0  0  0  0  0  0  0  0  0
    0.8657   -1.1130   -0.2325 C   0  0  0  0  0  0  0  0  0  0  0  0
    0.2453   -0.6139    1.0464 C   0  0  0  0  0  0  0  0  0  0  0  0
    0.0386   -1.6040    2.1633 C   0  0  0  0  0  0  0  0  0  0  0  0
    0.3952    0.8692    1.4063 C   0  0  0  0  0  0  0  0  0  0  0  0
   -0.8257    0.3501    0.7740 N   0  0  0  0  0  0  0  0  0  0  0  0
   -2.1721    2.1878   -0.8460 H   0  0  0  0  0  0  0  0  0  0  0  0
   -1.1831    1.9185   -2.2795 H   0  0  0  0  0  0  0  0  0  0  0  0
   -0.4437    2.5860   -0.8209 H   0  0  0  0  0  0  0  0  0  0  0  0
   -1.6714   -0.1998   -1.0509 H   0  0  0  0  0  0  0  0  0  0  0  0
    1.1960    0.6965   -1.3042 H   0  0  0  0  0  0  0  0  0  0  0  0
    1.0247   -0.3442   -3.1146 H   0  0  0  0  0  0  0  0  0  0  0  0
    1.9502   -1.2125   -0.1706 H   0  0  0  0  0  0  0  0  0  0  0  0
    0.4744   -2.1131   -0.4825 H   0  0  0  0  0  0  0  0  0  0  0  0
   -0.6156   -2.4244    1.8375 H   0  0  0  0  0  0  0  0  0  0  0  0
   -0.3558   -1.1470    3.0663 H   0  0  0  0  0  0  0  0  0  0  0  0
    1.0033   -2.0524    2.4378 H   0  0  0  0  0  0  0  0  0  0  0  0
    0.3323    1.1314    2.4646 H   0  0  0  0  0  0  0  0  0  0  0  0
    1.0578    1.4983    0.8130 H   0  0  0  0  0  0  0  0  0  0  0  0
  4 15  1  0
  3 14  1  0
  3  4  1  0
  3  5  1  0
  2  3  1  0
  5 17  1  0
  5 16  1  0
  1 11  1  0
  5  6  1  0
  1 10  1  0
  2 13  1  0
  1  2  1  0
  2  9  1  0
  1 12  1  0
  8 22  1  0
  6  8  1  0
  6  9  1  0
  6  7  1  0
  8  9  1  0
  8 21  1  0
  7 18  1  0
  7 20  1  0
  7 19  1  0
M  END
$$$$

     RDKit          3D

 15 14  0  0  0  0  0  0  0  0999 V2000
   -0.9553    1.5993    0.4511 C   0  0  0  0  0  0  0  0  0  0  0  0
    0.1024    0.8690    1.2670 C   0  0  0  0  0  0  0  0  0  0  0  0
    0.1632    1.0643    2.4767 O   0  0  0  0  0  0  0  0  0  0  0  0
    1.0128    0.0414    0.6343 N   0  0  0  0  0  0  0  0  0  0  0  0
    0.7480   -1.2590    0.1824 C   0  0  0  0  0  0  0  0  0  0  0  0
    1.2073   -2.2750    0.7308 O   0  0  0  0  0  0  0  0  0  0  0  0
    0.0674   -1.3883   -1.2024 C   0  0  0  0  0  0  0  0  0  0  0  0
   -0.7246   -0.3505   -1.7421 O   0  0  0  0  0  0  0  0  0  0  0  0
   -1.6535    2.1064    1.1357 H   0  0  0  0  0  0  0  0  0  0  0  0
   -1.5100    0.8154   -0.0532 H   0  0  0  0  0  0  0  0  0  0  0  0
   -0.4253    2.3470   -0.1816 H   0  0  0  0  0  0  0  0  0  0  0  0
    1.7296   -0.1077    1.3948 H   0  0  0  0  0  0  0  0  0  0  0  0
    0.8946   -1.5548   -1.9353 H   0  0  0  0  0  0  0  0  0  0  0  0
   -0.5489   -2.2891   -1.2650 H   0  0  0  0  0  0  0  0  0  0  0  0
   -0.1077    0.3816   -1.8933 H   0  0  0  0  0  0  0  0  0  0  0  0
  1 10  1  0
  7 14  1  0
  5  6  2  0
  2  3  2  0
  7  8  1  0
  8 15  1  0
  4  5  1  0
  5  7  1  0
  2  4  1  0
  1  2  1  0
  1  9  1  0
  4 12  1  0
  1 11  1  0
  7 13  1  0
M  END
$$$$

     RDKit          3D

 23 24  0  0  0  0  0  0  0  0999 V2000
   -2.1026    1.5796    0.0443 C   0  0  0  0  0  0  0  0  0  0  0  0
   -1.4827    0.2879   -0.5634 C   0  0  0  0  0  0  0  0  0  0  0  0
   -0.1422    1.0227   -1.1121 C   0  0  0  0  0  0  0  0  0  0  0  0
    0.4952   -0.3265   -0.7850 C   0  0  0  0  0  0  0  0  0  0  0  0
   -0.6377   -0.8399   -1.7005 C   0  0  0  0  0  0  0  0  0  0  0  0
    0.9402   -0.6746    0.6603 C   0  0  0  0  0  0  0  0  0  0  0  0
    2.4233   -0.2852    0.9373 C   0  0  0  0  0  0  0  0  0  0  0  0
    0.2349   -1.1507    1.8821 C   0  0  0  0  0  0  0  0  0  0  0  0
    0.6474   -2.0164    0.7555 O   0  0  0  0  0  0  0  0  0  0  0  0
   -2.6525    2.2039   -0.7342 H   0  0  0  0  0  0  0  0  0  0  0  0
   -1.3181    2.1197    0.5500 H   0  0  0  0  0  0  0  0  0  0  0  0
   -2.7866    1.2795    0.8272 H   0  0  0  0  0  0  0  0  0  0  0  0
   -1.7045   -0.4548    0.2546 H   0  0  0  0  0  0  0  0  0  0  0  0
   -0.2917    1.4365   -2.2062 H   0  0  0  0  0  0  0  0  0  0  0  0
    0.6151    1.7223   -0.6762 H   0  0  0  0  0  0  0  0  0  0  0  0
    1.4229   -0.5923   -1.3272 H   0  0  0  0  0  0  0  0  0  0  0  0
   -0.9385   -0.6927   -2.7879 H   0  0  0  0  0  0  0  0  0  0  0  0
   -0.9380   -1.8516   -1.4379 H   0  0  0  0  0  0  0  0  0  0  0  0
    3.0360   -0.7196    0.1669 H   0  0  0  0  0  0  0  0  0  0  0  0
    2.4462    0.8018    0.7810 H   0  0  0  0  0  0  0  0  0  0  0  0
    2.7747   -0.6664    1.8669 H   0  0  0  0  0  0  0  0  0  0  0  0
   -0.8652   -0.8982    1.8976 H   0  0  0  0  0  0  0  0  0  0  0  0
    0.8241   -1.2848    2.7070 H   0  0  0  0  0  0  0  0  0  0  0  0
  3 15  1  0
  7 21  1  0
  7 19  1  0
  1 11  1  0
  3 14  1  0
  7 20  1  0
  6  7  1  0
  3  4  1  0
  2  3  1  0
  1 10  1  0
  1  2  1  0
  1 12  1  0
  4 16  1  0
  4  6  1  0
  4  5  1  0
  2 13  1  0
  2  5  1  0
  6  9  1  0
  6  8  1  0
  8  9  1  0
  5 18  1  0
  5 17  1  0
  8 22  1  0
  8 23  1  0
M  END
$$$$

     RDKit          3D

 18 19  0  0  0  0  0  0  0  0999 V2000
    0.6774    2.1559   -1.2519 O   0  0  0  0  0  0  0  0  0  0  0  0
    1.5205    1.0173   -1.0772 C   0  0  0  0  0  0  0  0  0  0  0  0
    1.4838    0.5548    0.3798 C   0  0  0  0  0  0  0  0  0  0  0  0
    0.2342   -0.2411    0.7511 C   0  0  0  0  0  0  0  0  0  0  0  0
   -1.0045    0.1424    0.0648 N   0  0  0  0  0  0  0  0  0  0  0  0
   -2.3217   -0.2995    0.3002 C   0  0  0  0  0  0  0  0  0  0  0  0
   -1.4288   -1.4476    0.2515 C   0  0  0  0  0  0  0  0  0  0  0  0
    0.0340   -1.6166    0.0025 C   0  0  0  0  0  0  0  0  0  0  0  0
    0.6010   -2.5523   -0.5248 O   0  0  0  0  0  0  0  0  0  0  0  0
   -0.2438    1.8166   -1.1522 H   0  0  0  0  0  0  0  0  0  0  0  0
    2.5203    1.3247   -1.3771 H   0  0  0  0  0  0  0  0  0  0  0  0
    1.2050    0.2398   -1.7768 H   0  0  0  0  0  0  0  0  0  0  0  0
    2.3380   -0.0563    0.5326 H   0  0  0  0  0  0  0  0  0  0  0  0
    1.5623    1.4408    1.0087 H   0  0  0  0  0  0  0  0  0  0  0  0
    0.1952   -0.3722    1.8498 H   0  0  0  0  0  0  0  0  0  0  0  0
   -3.0459   -0.1457   -0.4966 H   0  0  0  0  0  0  0  0  0  0  0  0
   -2.7592   -0.0524    1.2827 H   0  0  0  0  0  0  0  0  0  0  0  0
   -1.5679   -1.9085    1.2329 H   0  0  0  0  0  0  0  0  0  0  0  0
  2 11  1  0
  3 14  1  0
  4 15  1  0
  1 10  1  0
  1  2  1  0
  8  9  2  0
  2  3  1  0
  2 12  1  0
  3  4  1  0
  3 13  1  0
  4  8  1  0
  4  5  1  0
  7  8  1  0
  5  7  1  0
  5  6  1  0
  7 18  1  0
  6  7  1  0
  6 17  1  0
  6 16  1  0
M  END
$$$$

     RDKit          3D

 19 20  0  0  0  0  0  0  0  0999 V2000
   -1.4894    1.4787   -0.6188 C   0  0  0  0  0  0  0  0  0  0  0  0
   -1.1043    0.4027    0.2818 C   0  0  0  0  0  0  0  0  0  0  0  0
    0.4280    0.5749    0.7139 C   0  0  0  0  0  0  0  0  0  0  0  0
    1.4359    1.4216    0.1833 O   0  0  0  0  0  0  0  0  0  0  0  0
    0.6640   -0.8815    0.5054 C   0  0  0  0  0  0  0  0  0  0  0  0
    0.9096   -1.7253    1.6780 O   0  0  0  0  0  0  0  0  0  0  0  0
    1.1837   -1.4189   -0.8988 C   0  0  0  0  0  0  0  0  0  0  0  0
   -0.1002   -0.9751   -1.4904 O   0  0  0  0  0  0  0  0  0  0  0  0
   -0.6729   -1.0401   -0.2622 C   0  0  0  0  0  0  0  0  0  0  0  0
   -2.5557    1.4986   -1.0111 H   0  0  0  0  0  0  0  0  0  0  0  0
   -0.7032    1.6119   -1.5290 H   0  0  0  0  0  0  0  0  0  0  0  0
   -1.4389    2.5107   -0.1313 H   0  0  0  0  0  0  0  0  0  0  0  0
   -1.8495    0.4559    1.1083 H   0  0  0  0  0  0  0  0  0  0  0  0
    0.3989    0.8831    1.7850 H   0  0  0  0  0  0  0  0  0  0  0  0
    0.9458    2.2148   -0.1517 H   0  0  0  0  0  0  0  0  0  0  0  0
    1.6584   -1.2985    2.1969 H   0  0  0  0  0  0  0  0  0  0  0  0
    2.1878   -1.1954   -1.3630 H   0  0  0  0  0  0  0  0  0  0  0  0
    1.1936   -2.4806   -0.8680 H   0  0  0  0  0  0  0  0  0  0  0  0
   -1.0915   -2.0376   -0.1283 H   0  0  0  0  0  0  0  0  0  0  0  0
  4 15  1  0
  3  4  1  0
  3 14  1  0
  1 11  1  0
  2  3  1  0
  3  5  1  0
  6 16  1  0
  1  2  1  0
  1 10  1  0
  1 12  1  0
  7 18  1  0
  2 13  1  0
  2  9  1  0
  5  6  1  0
  5  7  1  0
  5  9  1  0
  7 17  1  0
  7  8  1  0
  8  9  1  0
  9 19  1  0
M  END
$$$$

     RDKit          3D

 18 17  0  0  0  0  0  0  0  0999 V2000
   -1.4304    1.0227    0.9515 C   0  0  0  0  0  0  0  0  0  0  0  0
   -0.3088   -0.0004    1.1410 C   0  0  0  0  0  0  0  0  0  0  0  0
    0.4919   -0.3784   -0.1310 C   0  0  0  0  0  0  0  0  0  0  0  0
   -0.4111   -1.1037   -1.1478 C   0  0  0  0  0  0  0  0  0  0  0  0
    1.1470    0.8563   -0.7839 C   0  0  0  0  0  0  0  0  0  0  0  0
    1.5773   -1.3058    0.2719 C   0  0  0  0  0  0  0  0  0  0  0  0
    2.4235   -2.0349    0.5804 N   0  0  0  0  0  0  0  0  0  0  0  0
   -2.3911    0.5921    1.2614 H   0  0  0  0  0  0  0  0  0  0  0  0
   -1.5436    1.3485   -0.0869 H   0  0  0  0  0  0  0  0  0  0  0  0
   -1.2686    1.9018    1.5806 H   0  0  0  0  0  0  0  0  0  0  0  0
   -0.7456   -0.9051    1.5910 H   0  0  0  0  0  0  0  0  0  0  0  0
    0.3857    0.3960    1.8920 H   0  0  0  0  0  0  0  0  0  0  0  0
    0.0494   -1.1160   -2.1504 H   0  0  0  0  0  0  0  0  0  0  0  0
   -1.3919   -0.6183   -1.2410 H   0  0  0  0  0  0  0  0  0  0  0  0
   -0.5767   -2.1587   -0.8601 H   0  0  0  0  0  0  0  0  0  0  0  0
    0.4126    1.5675   -1.1690 H   0  0  0  0  0  0  0  0  0  0  0  0
    1.7998    1.3756   -0.0750 H   0  0  0  0  0  0  0  0  0  0  0  0
    1.7805    0.5607   -1.6245 H   0  0  0  0  0  0  0  0  0  0  0  0
  5 16  1  0
  5 17  1  0
  5 18  1  0
  3  5  1  0
  2 11  1  0
  1  9  1  0
  6  7  3  0
  1  8  1  0
  1  2  1  0
  2  3  1  0
  2 12  1  0
  3  6  1  0
  1 10  1  0
  3  4  1  0
  4 13  1  0
  4 14  1  0
  4 15  1  0
M  END
$$$$

     RDKit          3D

 18 19  0  0  0  0  0  0  0  0999 V2000
    1.3200    2.1322    0.3470 C   0  0  0  0  0  0  0  0  0  0  0  0
    0.3223    1.5003   -0.4892 O   0  0  0  0  0  0  0  0  0  0  0  0
   -0.7127    0.7238    0.1513 C   0  0  0  0  0  0  0  0  0  0  0  0
   -1.5614    0.0625   -0.8036 C   0  0  0  0  0  0  0  0  0  0  0  0
   -0.5110   -0.6872   -0.0231 C   0  0  0  0  0  0  0  0  0  0  0  0
   -0.5933   -1.6348    1.1026 C   0  0  0  0  0  0  0  0  0  0  0  0
    0.6172   -2.2251    0.6376 O   0  0  0  0  0  0  0  0  0  0  0  0
    0.3721   -1.6626   -0.6654 C   0  0  0  0  0  0  0  0  0  0  0  0
    1.5455   -1.2248   -1.3865 N   0  0  0  0  0  0  0  0  0  0  0  0
    0.7870    2.5431    1.2979 H   0  0  0  0  0  0  0  0  0  0  0  0
    1.7949    2.9703   -0.2253 H   0  0  0  0  0  0  0  0  0  0  0  0
    2.0552    1.4671    0.5893 H   0  0  0  0  0  0  0  0  0  0  0  0
   -1.2208    1.1298    0.9957 H   0  0  0  0  0  0  0  0  0  0  0  0
   -1.4325    0.3801   -1.8928 H   0  0  0  0  0  0  0  0  0  0  0  0
   -2.4867   -0.6919   -0.8708 H   0  0  0  0  0  0  0  0  0  0  0  0
   -1.2096   -2.4404    1.6242 H   0  0  0  0  0  0  0  0  0  0  0  0
   -0.4912   -0.9457    1.9882 H   0  0  0  0  0  0  0  0  0  0  0  0
    1.4051   -1.3967   -2.3771 H   0  0  0  0  0  0  0  0  0  0  0  0
  9 18  1  0
  8  9  1  0
  7  8  1  0
  5  8  1  0
  6  7  1  0
  3 13  1  0
  5  6  1  0
  3  5  1  0
  4  5  1  0
  4 14  1  0
  6 17  1  0
  6 16  1  0
  3  4  1  0
  2  3  1  0
  4 15  1  0
  1 10  1  0
  1 11  1  0
  1  2  1  0
  1 12  1  0
M  END
$$$$

     RDKit          3D

 19 18  0  0  0  0  0  0  0  0999 V2000
   -0.7158    2.9813   -0.5874 C   0  0  0  0  0  0  0  0  0  0  0  0
   -0.1751    1.3947   -1.2400 C   0  0  0  0  0  0  0  0  0  0  0  0
    0.3756    0.4378   -1.7352 C   0  0  0  0  0  0  0  0  0  0  0  0
    1.0512   -0.0363   -0.4299 C   0  0  0  0  0  0  0  0  0  0  0  0
   -0.0180   -1.0400    0.0908 C   0  0  0  0  0  0  0  0  0  0  0  0
   -0.0867   -1.1613    1.6065 C   0  0  0  0  0  0  0  0  0  0  0  0
   -0.4685   -0.0053    2.4455 O   0  0  0  0  0  0  0  0  0  0  0  0
    0.1951   -2.2612   -0.7306 C   0  0  0  0  0  0  0  0  0  0  0  0
    0.4507   -2.5957   -1.8809 C   0  0  0  0  0  0  0  0  0  0  0  0
   -0.7066    2.8810    0.4967 H   0  0  0  0  0  0  0  0  0  0  0  0
   -1.6792    3.0011   -1.1786 H   0  0  0  0  0  0  0  0  0  0  0  0
    0.1106    3.4518   -1.1474 H   0  0  0  0  0  0  0  0  0  0  0  0
    1.9743   -0.6435   -0.3825 H   0  0  0  0  0  0  0  0  0  0  0  0
    1.0124    0.9326    0.4456 H   0  0  0  0  0  0  0  0  0  0  0  0
   -0.9867   -0.5060   -0.0713 H   0  0  0  0  0  0  0  0  0  0  0  0
   -0.9933   -1.8457    1.6761 H   0  0  0  0  0  0  0  0  0  0  0  0
    0.6498   -1.8865    2.0205 H   0  0  0  0  0  0  0  0  0  0  0  0
    0.1350   -0.0645    3.2757 H   0  0  0  0  0  0  0  0  0  0  0  0
   -0.1247   -3.0343   -2.6736 H   0  0  0  0  0  0  0  0  0  0  0  0
  6 17  1  0
  6 16  1  0
  6  7  1  0
  5  6  1  0
  7 18  1  0
  4 13  1  0
  1 11  1  0
  3  4  1  0
  4  5  1  0
  4 14  1  0
  2  3  3  0
  5  8  1  0
  5 15  1  0
  1  2  1  0
  1 12  1  0
  1 10  1  0
  8  9  3  0
  9 19  1  0
M  END
$$$$

     RDKit          3D

 19 19  0  0  0  0  0  0  0  0999 V2000
   -2.1183    0.8414    0.1796 C   0  0  0  0  0  0  0  0  0  0  0  0
   -1.7269    0.8774    1.3324 C   0  0  0  0  0  0  0  0  0  0  0  0
   -0.4508    0.7051    2.0087 C   0  0  0  0  0  0  0  0  0  0  0  0
    0.1440   -0.2031    0.9011 C   0  0  0  0  0  0  0  0  0  0  0  0
   -0.4895   -1.2444    0.2841 C   0  0  0  0  0  0  0  0  0  0  0  0
    0.0988   -1.5041   -1.1427 C   0  0  0  0  0  0  0  0  0  0  0  0
    0.0222   -0.3690   -2.1038 O   0  0  0  0  0  0  0  0  0  0  0  0
    0.9234    0.5393   -1.3674 C   0  0  0  0  0  0  0  0  0  0  0  0
    1.3709    0.5151    0.1497 C   0  0  0  0  0  0  0  0  0  0  0  0
   -2.2710    0.2759   -0.7237 H   0  0  0  0  0  0  0  0  0  0  0  0
    0.0226    1.6724    2.4270 H   0  0  0  0  0  0  0  0  0  0  0  0
   -0.2859    0.0688    2.8747 H   0  0  0  0  0  0  0  0  0  0  0  0
   -1.5724   -1.4506    0.3211 H   0  0  0  0  0  0  0  0  0  0  0  0
   -0.5554   -2.3049   -1.5708 H   0  0  0  0  0  0  0  0  0  0  0  0
    1.1618   -1.7896   -1.0493 H   0  0  0  0  0  0  0  0  0  0  0  0
    0.3475    1.4578   -1.6060 H   0  0  0  0  0  0  0  0  0  0  0  0
    1.7130    0.6050   -2.1441 H   0  0  0  0  0  0  0  0  0  0  0  0
    1.5394    1.5154    0.5852 H   0  0  0  0  0  0  0  0  0  0  0  0
    2.1267   -0.2078    0.6440 H   0  0  0  0  0  0  0  0  0  0  0  0
  5 13  1  0
  6 14  1  0
  6 15  1  0
  5  6  1  0
  4  5  2  0
  3 11  1  0
  6  7  1  0
  3  4  1  0
  2  3  1  0
  3 12  1  0
  4  9  1  0
  7  8  1  0
  1  2  3  0
  1 10  1  0
  8 16  1  0
  8  9  1  0
  8 17  1  0
  9 19  1  0
  9 18  1  0
M  END
$$$$

     RDKit          3D

 27 26  0  0  0  0  0  0  0  0999 V2000
    1.3286    2.4920    0.6153 C   0  0  0  0  0  0  0  0  0  0  0  0
    1.8537    1.0533    0.5664 C   0  0  0  0  0  0  0  0  0  0  0  0
    1.4360    0.0171    1.5888 C   0  0  0  0  0  0  0  0  0  0  0  0
    0.1338   -0.5323    1.3588 O   0  0  0  0  0  0  0  0  0  0  0  0
    0.1322   -1.7919    0.7028 C   0  0  0  0  0  0  0  0  0  0  0  0
   -1.0341   -1.9782   -0.2401 C   0  0  0  0  0  0  0  0  0  0  0  0
   -1.5790   -0.7408   -1.0314 C   0  0  0  0  0  0  0  0  0  0  0  0
   -1.9157    0.4216   -0.1194 C   0  0  0  0  0  0  0  0  0  0  0  0
   -0.6154   -0.2799   -2.0631 C   0  0  0  0  0  0  0  0  0  0  0  0
    1.2529    2.9949    1.6116 H   0  0  0  0  0  0  0  0  0  0  0  0
    1.8907    3.1601   -0.0159 H   0  0  0  0  0  0  0  0  0  0  0  0
    0.3326    2.5340    0.1446 H   0  0  0  0  0  0  0  0  0  0  0  0
    1.5550    0.6833   -0.4204 H   0  0  0  0  0  0  0  0  0  0  0  0
    2.9362    1.0939    0.4897 H   0  0  0  0  0  0  0  0  0  0  0  0
    2.2371   -0.7659    1.6532 H   0  0  0  0  0  0  0  0  0  0  0  0
    1.4354    0.4379    2.5887 H   0  0  0  0  0  0  0  0  0  0  0  0
    1.0264   -1.9715    0.0380 H   0  0  0  0  0  0  0  0  0  0  0  0
    0.0362   -2.5619    1.5047 H   0  0  0  0  0  0  0  0  0  0  0  0
   -0.8579   -2.7728   -1.0319 H   0  0  0  0  0  0  0  0  0  0  0  0
   -1.9300   -2.3764    0.3273 H   0  0  0  0  0  0  0  0  0  0  0  0
   -2.5454   -1.0220   -1.4691 H   0  0  0  0  0  0  0  0  0  0  0  0
   -2.6983    1.0217   -0.6243 H   0  0  0  0  0  0  0  0  0  0  0  0
   -2.2476    0.1737    0.9464 H   0  0  0  0  0  0  0  0  0  0  0  0
   -1.0283    1.1021   -0.0148 H   0  0  0  0  0  0  0  0  0  0  0  0
   -0.9256   -0.6543   -3.0727 H   0  0  0  0  0  0  0  0  0  0  0  0
   -0.5971    0.8313   -2.1498 H   0  0  0  0  0  0  0  0  0  0  0  0
    0.3878   -0.5689   -1.8834 H   0  0  0  0  0  0  0  0  0  0  0  0
  8 23  1  0
  7 21  1  0
  9 26  1  0
  8 24  1  0
  7  8  1  0
  8 22  1  0
  7  9  1  0
  6  7  1  0
  9 25  1  0
  9 27  1  0
  5 17  1  0
  5 18  1  0
  5  6  1  0
  4  5  1  0
  6 20  1  0
  6 19  1  0
  3 15  1  0
  3  4  1  0
  3 16  1  0
  2  3  1  0
  1 11  1  0
  2 14  1  0
  1  2  1  0
  2 13  1  0
  1 10  1  0
  1 12  1  0
M  END
$$$$

     RDKit          3D

 22 22  0  0  0  0  0  0  0  0999 V2000
    0.3036    2.5665    0.4112 C   0  0  0  0  0  0  0  0  0  0  0  0
    0.5797    1.1148    0.3504 N   0  0  0  0  0  0  0  0  0  0  0  0
    0.7282    0.5635   -0.9749 C   0  0  0  0  0  0  0  0  0  0  0  0
   -0.5521   -0.0890   -1.5029 C   0  0  0  0  0  0  0  0  0  0  0  0
   -0.8829   -1.4617   -0.9200 C   0  0  0  0  0  0  0  0  0  0  0  0
    0.0401   -1.9346    0.2178 C   0  0  0  0  0  0  0  0  0  0  0  0
   -0.0597   -1.0601    1.4593 C   0  0  0  0  0  0  0  0  0  0  0  0
    0.4652    0.3778    1.4994 C   0  0  0  0  0  0  0  0  0  0  0  0
    0.6187    0.8813    2.6244 O   0  0  0  0  0  0  0  0  0  0  0  0
   -0.4089    2.8046   -0.3815 H   0  0  0  0  0  0  0  0  0  0  0  0
    1.2375    3.1119    0.2714 H   0  0  0  0  0  0  0  0  0  0  0  0
   -0.1542    2.8294    1.3921 H   0  0  0  0  0  0  0  0  0  0  0  0
    1.0953    1.3365   -1.6552 H   0  0  0  0  0  0  0  0  0  0  0  0
    1.5200   -0.2129   -0.9627 H   0  0  0  0  0  0  0  0  0  0  0  0
   -0.4668   -0.2300   -2.5984 H   0  0  0  0  0  0  0  0  0  0  0  0
   -1.3860    0.6183   -1.3906 H   0  0  0  0  0  0  0  0  0  0  0  0
   -1.9085   -1.4347   -0.5193 H   0  0  0  0  0  0  0  0  0  0  0  0
   -0.8870   -2.1928   -1.7387 H   0  0  0  0  0  0  0  0  0  0  0  0
   -0.2746   -2.9644    0.4985 H   0  0  0  0  0  0  0  0  0  0  0  0
    1.0892   -2.0254   -0.1125 H   0  0  0  0  0  0  0  0  0  0  0  0
    0.4348   -1.5985    2.2773 H   0  0  0  0  0  0  0  0  0  0  0  0
   -1.1316   -1.0007    1.7546 H   0  0  0  0  0  0  0  0  0  0  0  0
  5 18  1  0
  4 16  1  0
  6 20  1  0
  4  5  1  0
  5  6  1  0
  5 17  1  0
  4 15  1  0
  6 19  1  0
  3  4  1  0
  6  7  1  0
  1 11  1  0
  2  3  1  0
  3 14  1  0
  3 13  1  0
  7  8  1  0
  7 22  1  0
  7 21  1  0
  1  2  1  0
  2  8  1  0
  1 10  1  0
  1 12  1  0
  8  9  2  0
M  END
$$$$

     RDKit          3D

 17 17  0  0  0  0  0  0  0  0999 V2000
    2.0530   -0.8592    0.4511 N   0  0  0  0  0  0  0  0  0  0  0  0
    1.1754    0.0562    1.2057 C   0  0  0  0  0  0  0  0  0  0  0  0
   -0.2490    0.3308    0.5975 C   0  0  0  0  0  0  0  0  0  0  0  0
   -0.0898    0.9126   -0.7059 O   0  0  0  0  0  0  0  0  0  0  0  0
   -1.2152    0.3759   -1.5192 C   0  0  0  0  0  0  0  0  0  0  0  0
   -1.0286   -1.0375   -1.0537 C   0  0  0  0  0  0  0  0  0  0  0  0
   -0.9573   -0.9061    0.3731 O   0  0  0  0  0  0  0  0  0  0  0  0
   -0.9634    1.3067    1.3719 C   0  0  0  0  0  0  0  0  0  0  0  0
   -1.3954    2.2665    1.8928 N   0  0  0  0  0  0  0  0  0  0  0  0
    2.0407   -0.4886   -0.5304 H   0  0  0  0  0  0  0  0  0  0  0  0
    2.9988   -0.7680    0.8365 H   0  0  0  0  0  0  0  0  0  0  0  0
    1.7502    0.9902    1.3762 H   0  0  0  0  0  0  0  0  0  0  0  0
    1.0008   -0.4210    2.2007 H   0  0  0  0  0  0  0  0  0  0  0  0
   -1.0005    0.6187   -2.5475 H   0  0  0  0  0  0  0  0  0  0  0  0
   -2.2220    0.8291   -1.2027 H   0  0  0  0  0  0  0  0  0  0  0  0
   -1.8417   -1.7548   -1.3264 H   0  0  0  0  0  0  0  0  0  0  0  0
   -0.0558   -1.4515   -1.4196 H   0  0  0  0  0  0  0  0  0  0  0  0
  2 13  1  0
  1 10  1  0
  1  2  1  0
  1 11  1  0
  2 12  1  0
  2  3  1  0
  3  8  1  0
  3  7  1  0
  3  4  1  0
  8  9  3  0
  6  7  1  0
  4  5  1  0
  6 17  1  0
  6 16  1  0
  5  6  1  0
  5 14  1  0
  5 15  1  0
M  END
$$$$

     RDKit          3D

 16 16  0  0  0  0  0  0  0  0999 V2000
   -0.5075    1.6466   -0.7177 C   0  0  0  0  0  0  0  0  0  0  0  0
   -0.1468    0.3129   -0.2991 N   0  0  0  0  0  0  0  0  0  0  0  0
    0.6063   -0.0011    0.8162 C   0  0  0  0  0  0  0  0  0  0  0  0
    1.0307    0.9274    1.7038 N   0  0  0  0  0  0  0  0  0  0  0  0
    0.7821   -1.3685    0.8275 C   0  0  0  0  0  0  0  0  0  0  0  0
    0.0495   -1.9040   -0.2622 C   0  0  0  0  0  0  0  0  0  0  0  0
   -0.5396   -0.8473   -0.9228 C   0  0  0  0  0  0  0  0  0  0  0  0
   -1.3948   -0.8260   -1.9389 O   0  0  0  0  0  0  0  0  0  0  0  0
   -0.9937    2.1396    0.1248 H   0  0  0  0  0  0  0  0  0  0  0  0
    0.4021    2.1724   -1.0229 H   0  0  0  0  0  0  0  0  0  0  0  0
   -1.2169    1.6092   -1.5469 H   0  0  0  0  0  0  0  0  0  0  0  0
    0.9474    1.9212    1.5307 H   0  0  0  0  0  0  0  0  0  0  0  0
    1.7163    0.6802    2.4123 H   0  0  0  0  0  0  0  0  0  0  0  0
    1.3264   -1.9250    1.5756 H   0  0  0  0  0  0  0  0  0  0  0  0
   -0.0512   -2.9625   -0.5124 H   0  0  0  0  0  0  0  0  0  0  0  0
   -2.0105   -1.5751   -1.7681 H   0  0  0  0  0  0  0  0  0  0  0  0
  4 13  1  0
  4 12  1  0
  3  4  1  0
  5 14  1  0
  3  5  2  0
  2  3  1  0
  1 10  1  0
  5  6  1  0
  1  2  1  0
  2  7  1  0
  1  9  1  0
  1 11  1  0
  6  7  2  0
  6 15  1  0
  7  8  1  0
  8 16  1  0
M  END
$$$$

     RDKit          3D

 17 17  0  0  0  0  0  0  0  0999 V2000
   -1.0125   -1.9843   -1.0868 O   0  0  0  0  0  0  0  0  0  0  0  0
   -0.2693   -1.0272   -0.3375 C   0  0  0  0  0  0  0  0  0  0  0  0
   -0.8271   -0.8723    1.0684 C   0  0  0  0  0  0  0  0  0  0  0  0
   -0.9676    0.5476    1.3381 O   0  0  0  0  0  0  0  0  0  0  0  0
   -0.2174    1.2440    0.3177 C   0  0  0  0  0  0  0  0  0  0  0  0
    1.1937    1.3431    0.7456 C   0  0  0  0  0  0  0  0  0  0  0  0
    2.3098    1.2764    1.1761 C   0  0  0  0  0  0  0  0  0  0  0  0
   -0.4110    0.3690   -0.9191 C   0  0  0  0  0  0  0  0  0  0  0  0
    0.4803    0.6339   -1.9968 O   0  0  0  0  0  0  0  0  0  0  0  0
   -0.5130   -2.8231   -1.0726 H   0  0  0  0  0  0  0  0  0  0  0  0
    0.7734   -1.3498   -0.3426 H   0  0  0  0  0  0  0  0  0  0  0  0
   -0.1085   -1.2720    1.8036 H   0  0  0  0  0  0  0  0  0  0  0  0
   -1.7972   -1.3596    1.2294 H   0  0  0  0  0  0  0  0  0  0  0  0
   -0.6542    2.2331    0.1661 H   0  0  0  0  0  0  0  0  0  0  0  0
    3.2727    1.0922    1.6259 H   0  0  0  0  0  0  0  0  0  0  0  0
   -1.4347    0.4806   -1.2969 H   0  0  0  0  0  0  0  0  0  0  0  0
    0.1825    1.4681   -2.4186 H   0  0  0  0  0  0  0  0  0  0  0  0
  8 16  1  0
  8  9  1  0
  9 17  1  0
  2 11  1  0
  2  8  1  0
  5  8  1  0
  1 10  1  0
  1  2  1  0
  2  3  1  0
  5 14  1  0
  4  5  1  0
  5  6  1  0
  3 12  1  0
  3  4  1  0
  3 13  1  0
  6  7  3  0
  7 15  1  0
M  END
$$$$

     RDKit          3D

 17 16  0  0  0  0  0  0  0  0999 V2000
    0.5051    1.1657    2.3529 C   0  0  0  0  0  0  0  0  0  0  0  0
   -0.6913    1.3147    1.5403 C   0  0  0  0  0  0  0  0  0  0  0  0
   -1.1608    1.0958    0.4929 C   0  0  0  0  0  0  0  0  0  0  0  0
   -0.4942    1.0623   -0.8037 C   0  0  0  0  0  0  0  0  0  0  0  0
    0.0773    2.0875   -1.2549 O   0  0  0  0  0  0  0  0  0  0  0  0
   -0.2731   -0.3633   -1.2775 C   0  0  0  0  0  0  0  0  0  0  0  0
    1.0090   -1.2308   -0.7180 C   0  0  0  0  0  0  0  0  0  0  0  0
   -1.5442   -1.1527   -0.9758 C   0  0  0  0  0  0  0  0  0  0  0  0
   -2.0864   -1.8313   -1.8935 O   0  0  0  0  0  0  0  0  0  0  0  0
    0.9631    0.9234    1.4962 H   0  0  0  0  0  0  0  0  0  0  0  0
    1.1178    0.3943    2.7896 H   0  0  0  0  0  0  0  0  0  0  0  0
    0.8227    2.2370    2.6656 H   0  0  0  0  0  0  0  0  0  0  0  0
   -0.1720   -0.3914   -2.4826 H   0  0  0  0  0  0  0  0  0  0  0  0
    1.3757   -1.8516   -1.5367 H   0  0  0  0  0  0  0  0  0  0  0  0
    0.7810   -1.8971    0.1063 H   0  0  0  0  0  0  0  0  0  0  0  0
    1.9179   -0.5895   -0.4972 H   0  0  0  0  0  0  0  0  0  0  0  0
   -2.1474   -0.9729   -0.0041 H   0  0  0  0  0  0  0  0  0  0  0  0
  8  9  2  0
  1 10  1  0
  8 17  1  0
  6  8  1  0
  1 11  1  0
  1  2  1  0
  1 12  1  0
  2  3  3  0
  3  4  1  0
  6 13  1  0
  4  6  1  0
  6  7  1  0
  4  5  2  0
  7 14  1  0
  7 16  1  0
  7 15  1  0
M  END
$$$$

     RDKit          3D

 16 18  0  0  0  0  0  0  0  0999 V2000
    0.3437    2.4165   -0.2412 O   0  0  0  0  0  0  0  0  0  0  0  0
   -0.3418    1.2652   -0.8324 C   0  0  0  0  0  0  0  0  0  0  0  0
   -1.4240    0.3537    0.5871 C   0  0  0  0  0  0  0  0  0  0  0  0
   -0.5820   -1.0237    1.3459 C   0  0  0  0  0  0  0  0  0  0  0  0
    1.0255   -1.2495    0.4114 C   0  0  0  0  0  0  0  0  0  0  0  0
    1.8492   -2.0473    0.8352 O   0  0  0  0  0  0  0  0  0  0  0  0
    0.9362   -0.0742   -1.2121 C   0  0  0  0  0  0  0  0  0  0  0  0
   -0.3508   -0.5248   -1.5835 N   0  0  0  0  0  0  0  0  0  0  0  0
   -0.4911    0.0816   -0.2592 C   0  0  0  0  0  0  0  0  0  0  0  0
    0.5936    3.1073   -0.9132 H   0  0  0  0  0  0  0  0  0  0  0  0
   -1.5135    1.1259    1.3586 H   0  0  0  0  0  0  0  0  0  0  0  0
   -0.3589   -0.7617    2.3622 H   0  0  0  0  0  0  0  0  0  0  0  0
   -1.2303   -1.8899    1.1735 H   0  0  0  0  0  0  0  0  0  0  0  0
    1.6867    0.2605   -1.9251 H   0  0  0  0  0  0  0  0  0  0  0  0
   -0.4743   -1.5301   -1.5928 H   0  0  0  0  0  0  0  0  0  0  0  0
    0.3317    0.4905    0.4856 H   0  0  0  0  0  0  0  0  0  0  0  0
  5  6  2  0
  4 13  1  0
  4  5  1  0
  5  7  1  0
  4 12  1  0
  3  4  1  0
  7 14  1  0
  2  7  1  0
  7  8  1  0
  2  3  1  0
  3 11  1  0
  3  9  1  0
  1  2  1  0
  2  9  1  0
  1 10  1  0
  8 15  1  0
  8  9  1  0
  9 16  1  0
M  END
$$$$

     RDKit          3D

 18 19  0  0  0  0  0  0  0  0999 V2000
   -0.4636   -3.0290   -0.5320 O   0  0  0  0  0  0  0  0  0  0  0  0
   -0.2649   -2.0224    0.1325 C   0  0  0  0  0  0  0  0  0  0  0  0
    1.1004   -1.3450    0.6018 C   0  0  0  0  0  0  0  0  0  0  0  0
    0.5875    0.2632    0.3364 C   0  0  0  0  0  0  0  0  0  0  0  0
    1.2068    1.5019   -0.2941 C   0  0  0  0  0  0  0  0  0  0  0  0
   -0.1222    1.6435   -1.1537 C   0  0  0  0  0  0  0  0  0  0  0  0
   -0.3362    0.2465   -0.7765 N   0  0  0  0  0  0  0  0  0  0  0  0
   -1.7498   -0.1744   -0.0940 C   0  0  0  0  0  0  0  0  0  0  0  0
   -1.6364   -1.3306    0.6080 C   0  0  0  0  0  0  0  0  0  0  0  0
    2.2456   -1.2425    0.2101 H   0  0  0  0  0  0  0  0  0  0  0  0
    1.2663   -1.7505    1.5862 H   0  0  0  0  0  0  0  0  0  0  0  0
    0.1709    0.5200    1.2864 H   0  0  0  0  0  0  0  0  0  0  0  0
    2.3032    1.4860   -0.6514 H   0  0  0  0  0  0  0  0  0  0  0  0
    1.0685    2.4455    0.3817 H   0  0  0  0  0  0  0  0  0  0  0  0
   -0.9677    2.2822   -0.7423 H   0  0  0  0  0  0  0  0  0  0  0  0
    0.0189    1.7010   -2.2261 H   0  0  0  0  0  0  0  0  0  0  0  0
   -1.8820    0.7975    0.5296 H   0  0  0  0  0  0  0  0  0  0  0  0
   -2.5452   -1.9929    0.7975 H   0  0  0  0  0  0  0  0  0  0  0  0
  4 12  1  0
  5 13  1  0
  4  7  1  0
  4  5  1  0
  3  4  1  0
  3 10  1  0
  7  8  1  0
  6  7  1  0
  6 15  1  0
  1  2  2  0
  2  9  1  0
  2  3  1  0
  5  6  1  0
  5 14  1  0
  8  9  2  0
  9 18  1  0
  8 17  1  0
  3 11  1  0
  6 16  1  0
M  END
$$$$

     RDKit          3D

 17 17  0  0  0  0  0  0  0  0999 V2000
    0.6801   -1.7684   -0.9237 O   0  0  0  0  0  0  0  0  0  0  0  0
    1.8198   -1.4628   -1.2253 C   0  0  0  0  0  0  0  0  0  0  0  0
    2.5662   -0.3698   -0.4008 C   0  0  0  0  0  0  0  0  0  0  0  0
    1.5190    0.6799   -0.0017 C   0  0  0  0  0  0  0  0  0  0  0  0
    0.4405    1.0976    0.3363 C   0  0  0  0  0  0  0  0  0  0  0  0
   -0.9088    1.0362    0.6950 C   0  0  0  0  0  0  0  0  0  0  0  0
   -1.8437    0.6768   -0.4569 C   0  0  0  0  0  0  0  0  0  0  0  0
   -2.7079   -0.0267    0.3270 O   0  0  0  0  0  0  0  0  0  0  0  0
   -1.6425   -0.1515    1.2736 C   0  0  0  0  0  0  0  0  0  0  0  0
    2.1340   -1.6554   -2.2977 H   0  0  0  0  0  0  0  0  0  0  0  0
    2.9206   -0.8265    0.5011 H   0  0  0  0  0  0  0  0  0  0  0  0
    3.3528    0.1310   -0.9393 H   0  0  0  0  0  0  0  0  0  0  0  0
   -1.2537    1.8912    1.2906 H   0  0  0  0  0  0  0  0  0  0  0  0
   -2.2343    1.5546   -1.0336 H   0  0  0  0  0  0  0  0  0  0  0  0
   -1.2601    0.1362   -1.2630 H   0  0  0  0  0  0  0  0  0  0  0  0
   -1.9309    0.2847    2.3031 H   0  0  0  0  0  0  0  0  0  0  0  0
   -1.6510   -1.2269    1.8154 H   0  0  0  0  0  0  0  0  0  0  0  0
  9 17  1  0
  6 13  1  0
  8  9  1  0
  6  9  1  0
  9 16  1  0
  7  8  1  0
  7 14  1  0
  6  7  1  0
  5  6  1  0
  7 15  1  0
  4  5  3  0
  2 10  1  0
  3  4  1  0
  1  2  2  0
  2  3  1  0
  3 12  1  0
  3 11  1  0
M  END
$$$$

     RDKit          3D

 20 21  0  0  0  0  0  0  0  0999 V2000
    1.0153    1.1740    1.2453 C   0  0  0  0  0  0  0  0  0  0  0  0
    0.3597   -0.1355    0.7959 C   0  0  0  0  0  0  0  0  0  0  0  0
    0.7168   -1.3799    1.3962 N   0  0  0  0  0  0  0  0  0  0  0  0
    1.1882   -1.3332    0.0135 C   0  0  0  0  0  0  0  0  0  0  0  0
    0.4709   -0.7651   -1.1726 C   0  0  0  0  0  0  0  0  0  0  0  0
    1.2445    0.0732   -1.9925 O   0  0  0  0  0  0  0  0  0  0  0  0
   -0.7312   -0.2033   -0.2655 C   0  0  0  0  0  0  0  0  0  0  0  0
   -1.4969    1.2085   -0.3874 C   0  0  0  0  0  0  0  0  0  0  0  0
   -1.7393   -1.2399    0.0015 O   0  0  0  0  0  0  0  0  0  0  0  0
    1.8857    0.9825    1.9479 H   0  0  0  0  0  0  0  0  0  0  0  0
    1.4740    1.7198    0.3860 H   0  0  0  0  0  0  0  0  0  0  0  0
    0.3254    1.8045    1.7594 H   0  0  0  0  0  0  0  0  0  0  0  0
   -0.3027   -1.8749    1.4157 H   0  0  0  0  0  0  0  0  0  0  0  0
    1.0513   -2.3760   -0.1675 H   0  0  0  0  0  0  0  0  0  0  0  0
    0.0057   -1.5461   -1.8359 H   0  0  0  0  0  0  0  0  0  0  0  0
    2.1934    0.0096   -1.7732 H   0  0  0  0  0  0  0  0  0  0  0  0
   -1.6217    1.8282   -1.3729 H   0  0  0  0  0  0  0  0  0  0  0  0
   -1.0435    1.9563    0.3302 H   0  0  0  0  0  0  0  0  0  0  0  0
   -2.4502    1.0385    0.0796 H   0  0  0  0  0  0  0  0  0  0  0  0
   -2.5455   -0.9414   -0.4037 H   0  0  0  0  0  0  0  0  0  0  0  0
  8 18  1  0
  8 19  1  0
  9 20  1  0
  8 17  1  0
  7  8  1  0
  7  9  1  0
  5  7  1  0
  2  7  1  0
  1 11  1  0
  1 10  1  0
  5 15  1  0
  5  6  1  0
  6 16  1  0
  4  5  1  0
  1  2  1  0
  2  3  1  0
  2  4  1  0
  1 12  1  0
  3  4  1  0
  3 13  1  0
  4 14  1  0
M  END
$$$$

     RDKit          3D

 20 20  0  0  0  0  0  0  0  0999 V2000
    0.7481    2.1603   -0.2326 C   0  0  0  0  0  0  0  0  0  0  0  0
    0.3970    0.7364   -0.2401 N   0  0  0  0  0  0  0  0  0  0  0  0
   -1.0407    0.5839    0.0322 C   0  0  0  0  0  0  0  0  0  0  0  0
   -1.6087   -0.6912   -0.5938 C   0  0  0  0  0  0  0  0  0  0  0  0
   -0.5597   -1.7746   -0.7525 C   0  0  0  0  0  0  0  0  0  0  0  0
   -0.0204   -2.1217    0.5154 O   0  0  0  0  0  0  0  0  0  0  0  0
    1.1105   -1.4868    0.8959 C   0  0  0  0  0  0  0  0  0  0  0  0
    2.0055   -2.1151    1.4660 O   0  0  0  0  0  0  0  0  0  0  0  0
    1.2206    0.0311    0.7844 C   0  0  0  0  0  0  0  0  0  0  0  0
    1.7856    2.3006   -0.5623 H   0  0  0  0  0  0  0  0  0  0  0  0
    0.6544    2.6025    0.7666 H   0  0  0  0  0  0  0  0  0  0  0  0
    0.1177    2.7224   -0.9447 H   0  0  0  0  0  0  0  0  0  0  0  0
   -1.6037    1.4201   -0.4331 H   0  0  0  0  0  0  0  0  0  0  0  0
   -1.2626    0.6581    1.1101 H   0  0  0  0  0  0  0  0  0  0  0  0
   -2.0333   -0.4758   -1.5784 H   0  0  0  0  0  0  0  0  0  0  0  0
   -2.4107   -1.0521    0.0390 H   0  0  0  0  0  0  0  0  0  0  0  0
   -1.0337   -2.6761   -1.1463 H   0  0  0  0  0  0  0  0  0  0  0  0
    0.2414   -1.4923   -1.4513 H   0  0  0  0  0  0  0  0  0  0  0  0
    1.0165    0.4394    1.7771 H   0  0  0  0  0  0  0  0  0  0  0  0
    2.2765    0.2309    0.5483 H   0  0  0  0  0  0  0  0  0  0  0  0
  4 15  1  0
  3 13  1  0
  3 14  1  0
  3  4  1  0
  4 16  1  0
  4  5  1  0
  2  3  1  0
  5 17  1  0
  5 18  1  0
  5  6  1  0
  1  2  1  0
  2  9  1  0
  1 11  1  0
  9 20  1  0
  6  7  1  0
  1 10  1  0
  1 12  1  0
  7  9  1  0
  9 19  1  0
  7  8  2  0
M  END
$$$$

     RDKit          3D

 20 22  0  0  0  0  0  0  0  0999 V2000
    0.2559    2.3697    0.3484 C   0  0  0  0  0  0  0  0  0  0  0  0
   -0.1192    1.0450    0.9782 C   0  0  0  0  0  0  0  0  0  0  0  0
    0.6333    0.9573    2.2300 O   0  0  0  0  0  0  0  0  0  0  0  0
    0.2402   -0.0850    0.0110 C   0  0  0  0  0  0  0  0  0  0  0  0
    1.4988   -0.7739    0.1777 N   0  0  0  0  0  0  0  0  0  0  0  0
    0.2463   -1.5027    0.4333 C   0  0  0  0  0  0  0  0  0  0  0  0
   -0.7756   -1.8108   -0.6722 C   0  0  0  0  0  0  0  0  0  0  0  0
   -0.4097   -1.6588   -2.1421 C   0  0  0  0  0  0  0  0  0  0  0  0
   -0.6586   -0.4171   -1.1647 C   0  0  0  0  0  0  0  0  0  0  0  0
    1.3304    2.3902    0.0749 H   0  0  0  0  0  0  0  0  0  0  0  0
    0.0584    3.1164    1.0727 H   0  0  0  0  0  0  0  0  0  0  0  0
   -0.3554    2.6013   -0.5340 H   0  0  0  0  0  0  0  0  0  0  0  0
   -1.1888    1.0114    1.2454 H   0  0  0  0  0  0  0  0  0  0  0  0
    0.6580    0.0206    2.4371 H   0  0  0  0  0  0  0  0  0  0  0  0
    1.9703   -0.3292    1.0355 H   0  0  0  0  0  0  0  0  0  0  0  0
   -0.0014   -1.7845    1.4455 H   0  0  0  0  0  0  0  0  0  0  0  0
   -1.7494   -2.1911   -0.3972 H   0  0  0  0  0  0  0  0  0  0  0  0
   -0.5958   -1.0302   -3.0807 H   0  0  0  0  0  0  0  0  0  0  0  0
    0.6058   -2.0413   -2.2706 H   0  0  0  0  0  0  0  0  0  0  0  0
   -1.6434    0.1126   -1.2282 H   0  0  0  0  0  0  0  0  0  0  0  0
  5 15  1  0
  1 11  1  0
  1 12  1  0
  5  6  1  0
  4  5  1  0
  6 16  1  0
  1 10  1  0
  1  2  1  0
  4  6  1  0
  6  7  1  0
  8 19  1  0
  2  4  1  0
  4  9  1  0
  2 13  1  0
  2  3  1  0
  7  8  1  0
  7 17  1  0
  7  9  1  0
  8  9  1  0
  8 18  1  0
  9 20  1  0
  3 14  1  0
M  END
$$$$

     RDKit          3D

 16 15  0  0  0  0  0  0  0  0999 V2000
    1.6493   -1.4984    1.4961 N   0  0  0  0  0  0  0  0  0  0  0  0
    1.6847    0.0066    1.2146 C   0  0  0  0  0  0  0  0  0  0  0  0
    0.5480    0.7770    1.2848 O   0  0  0  0  0  0  0  0  0  0  0  0
    0.3076    1.4246    0.0101 C   0  0  0  0  0  0  0  0  0  0  0  0
    0.5205    0.4636   -1.1623 C   0  0  0  0  0  0  0  0  0  0  0  0
   -0.6026   -0.4722   -1.2417 C   0  0  0  0  0  0  0  0  0  0  0  0
   -1.5082   -1.0377   -0.7938 C   0  0  0  0  0  0  0  0  0  0  0  0
   -2.6068   -1.1012    0.0687 C   0  0  0  0  0  0  0  0  0  0  0  0
   -2.9923   -2.0731    0.7116 O   0  0  0  0  0  0  0  0  0  0  0  0
    1.2533   -1.8876    0.5628 H   0  0  0  0  0  0  0  0  0  0  0  0
    2.7291    0.3943    0.9715 H   0  0  0  0  0  0  0  0  0  0  0  0
    0.9356    2.3696    0.0243 H   0  0  0  0  0  0  0  0  0  0  0  0
   -0.7455    1.6971    0.0532 H   0  0  0  0  0  0  0  0  0  0  0  0
    0.5955    1.1226   -2.0511 H   0  0  0  0  0  0  0  0  0  0  0  0
    1.5303   -0.0009   -1.2345 H   0  0  0  0  0  0  0  0  0  0  0  0
   -3.2985   -0.1842    0.0857 H   0  0  0  0  0  0  0  0  0  0  0  0
  4 12  1  0
  5 15  1  0
  8 16  1  0
  8  9  2  0
  7  8  1  0
  2 11  1  0
  6  7  3  0
  3  4  1  0
  4  5  1  0
  4 13  1  0
  5  6  1  0
  2  3  1  0
  1  2  1  0
  1 10  1  0
  5 14  1  0
M  END
$$$$

     RDKit          3D

 16 19  0  0  0  0  0  0  0  0999 V2000
   -0.0521    1.1591    1.8243 O   0  0  0  0  0  0  0  0  0  0  0  0
    0.3001    0.2203    0.7888 C   0  0  0  0  0  0  0  0  0  0  0  0
    1.4292    0.5525   -0.2389 C   0  0  0  0  0  0  0  0  0  0  0  0
    0.5987   -0.3548   -1.2165 C   0  0  0  0  0  0  0  0  0  0  0  0
    0.3115   -1.6846   -0.5202 N   0  0  0  0  0  0  0  0  0  0  0  0
    0.0799   -1.2032    0.8922 C   0  0  0  0  0  0  0  0  0  0  0  0
   -0.9945   -1.1900   -0.0876 C   0  0  0  0  0  0  0  0  0  0  0  0
   -0.6462    0.1611   -0.4496 C   0  0  0  0  0  0  0  0  0  0  0  0
   -1.5335    1.0883   -1.0387 O   0  0  0  0  0  0  0  0  0  0  0  0
   -0.1113    2.0327    1.3997 H   0  0  0  0  0  0  0  0  0  0  0  0
    2.4086    0.1017    0.0211 H   0  0  0  0  0  0  0  0  0  0  0  0
    1.5700    1.6222   -0.5071 H   0  0  0  0  0  0  0  0  0  0  0  0
    0.5885   -0.1966   -2.3134 H   0  0  0  0  0  0  0  0  0  0  0  0
    0.2304   -1.8777    1.6984 H   0  0  0  0  0  0  0  0  0  0  0  0
   -1.9540   -1.6381    0.1241 H   0  0  0  0  0  0  0  0  0  0  0  0
   -2.2251    1.2071   -0.3767 H   0  0  0  0  0  0  0  0  0  0  0  0
  3 11  1  0
  3 12  1  0
  3  4  1  0
  2  3  1  0
  4 13  1  0
  9 16  1  0
  8  9  1  0
  4  8  1  0
  4  5  1  0
  2  8  1  0
  7  8  1  0
  1  2  1  0
  1 10  1  0
  2  6  1  0
  5  6  1  0
  5  7  1  0
  6  7  1  0
  6 14  1  0
  7 15  1  0
M  END
$$$$

     RDKit          3D

 17 19  0  0  0  0  0  0  0  0999 V2000
   -1.3886    1.6851   -0.9518 C   0  0  0  0  0  0  0  0  0  0  0  0
   -0.6704    0.3307   -0.9680 N   0  0  0  0  0  0  0  0  0  0  0  0
   -1.0660   -0.4490    0.1912 C   0  0  0  0  0  0  0  0  0  0  0  0
    0.0524   -1.2532    0.6817 C   0  0  0  0  0  0  0  0  0  0  0  0
    0.0679    0.2611    1.0093 C   0  0  0  0  0  0  0  0  0  0  0  0
    0.7046    0.4439   -0.2931 C   0  0  0  0  0  0  0  0  0  0  0  0
    1.2790   -1.1258   -0.3017 C   0  0  0  0  0  0  0  0  0  0  0  0
    2.4099   -1.7110    0.5121 C   0  0  0  0  0  0  0  0  0  0  0  0
    2.9466   -2.5360    1.1166 N   0  0  0  0  0  0  0  0  0  0  0  0
   -2.4508    1.6874   -1.2981 H   0  0  0  0  0  0  0  0  0  0  0  0
   -1.4829    2.0032    0.0851 H   0  0  0  0  0  0  0  0  0  0  0  0
   -0.7315    2.2256   -1.6559 H   0  0  0  0  0  0  0  0  0  0  0  0
   -2.0364   -0.6118    0.6032 H   0  0  0  0  0  0  0  0  0  0  0  0
    0.2581   -1.7929    1.6361 H   0  0  0  0  0  0  0  0  0  0  0  0
   -0.4198    1.0243    1.4207 H   0  0  0  0  0  0  0  0  0  0  0  0
    1.2823    1.4745   -0.4994 H   0  0  0  0  0  0  0  0  0  0  0  0
    1.2457   -1.6561   -1.2879 H   0  0  0  0  0  0  0  0  0  0  0  0
  3 13  1  0
  4 14  1  0
  3  4  1  0
  3  5  1  0
  2  3  1  0
  4  5  1  0
  4  7  1  0
  1 11  1  0
  5 15  1  0
  5  6  1  0
  1 10  1  0
  1  2  1  0
  2  6  1  0
  1 12  1  0
  7 17  1  0
  6  7  1  0
  7  8  1  0
  6 16  1  0
  8  9  3  0
M  END
$$$$

     RDKit          3D

 13 14  0  0  0  0  0  0  0  0999 V2000
    1.4957   -2.1095    0.4819 O   0  0  0  0  0  0  0  0  0  0  0  0
    0.8950   -1.1587    0.0284 C   0  0  0  0  0  0  0  0  0  0  0  0
    1.3684    0.1934   -0.2323 C   0  0  0  0  0  0  0  0  0  0  0  0
    0.4957    1.3884   -0.1237 C   0  0  0  0  0  0  0  0  0  0  0  0
    0.1836    0.3840   -1.1387 N   0  0  0  0  0  0  0  0  0  0  0  0
   -0.4581   -0.8775   -0.6488 C   0  0  0  0  0  0  0  0  0  0  0  0
   -1.5635   -0.6308    0.2937 C   0  0  0  0  0  0  0  0  0  0  0  0
   -2.2691   -0.2601    1.1971 C   0  0  0  0  0  0  0  0  0  0  0  0
    2.3615    0.3406   -0.6679 H   0  0  0  0  0  0  0  0  0  0  0  0
    0.8522    2.3489   -0.4735 H   0  0  0  0  0  0  0  0  0  0  0  0
   -0.2053    1.5470    0.7118 H   0  0  0  0  0  0  0  0  0  0  0  0
   -0.7064   -1.5993   -1.4413 H   0  0  0  0  0  0  0  0  0  0  0  0
   -2.4497    0.4337    2.0132 H   0  0  0  0  0  0  0  0  0  0  0  0
  6 12  1  0
  3  9  1  0
  3  5  1  0
  5  6  1  0
  4  5  1  0
  2  3  1  0
  3  4  1  0
  1  2  2  0
  2  6  1  0
  6  7  1  0
  4 10  1  0
  4 11  1  0
  7  8  3  0
  8 13  1  0
M  END
$$$$

     RDKit          3D

 18 19  0  0  0  0  0  0  0  0999 V2000
    0.9308    2.3819    0.0719 C   0  0  0  0  0  0  0  0  0  0  0  0
    0.0939    1.2725   -0.3768 N   0  0  0  0  0  0  0  0  0  0  0  0
   -1.1805    0.9524    0.1589 C   0  0  0  0  0  0  0  0  0  0  0  0
   -1.0239   -0.4410    0.3747 C   0  0  0  0  0  0  0  0  0  0  0  0
   -0.4826   -1.3242    1.4082 C   0  0  0  0  0  0  0  0  0  0  0  0
   -0.1975   -2.6148    0.7145 O   0  0  0  0  0  0  0  0  0  0  0  0
   -0.1267   -2.2254   -0.7783 C   0  0  0  0  0  0  0  0  0  0  0  0
   -0.4269   -0.8033   -0.8459 C   0  0  0  0  0  0  0  0  0  0  0  0
    0.3499    0.2872   -1.3102 C   0  0  0  0  0  0  0  0  0  0  0  0
    1.1824    3.0734   -0.6966 H   0  0  0  0  0  0  0  0  0  0  0  0
    1.8580    1.9127    0.4141 H   0  0  0  0  0  0  0  0  0  0  0  0
    0.4711    2.9111    0.8241 H   0  0  0  0  0  0  0  0  0  0  0  0
   -1.7571    1.8019    0.6167 H   0  0  0  0  0  0  0  0  0  0  0  0
    0.5062   -0.9894    1.7166 H   0  0  0  0  0  0  0  0  0  0  0  0
   -1.0097   -1.4236    2.3965 H   0  0  0  0  0  0  0  0  0  0  0  0
   -0.9273   -2.7988   -1.3850 H   0  0  0  0  0  0  0  0  0  0  0  0
    0.9329   -2.5033   -1.0529 H   0  0  0  0  0  0  0  0  0  0  0  0
    0.8071    0.5307   -2.2505 H   0  0  0  0  0  0  0  0  0  0  0  0
  3 13  1  0
  5 15  1  0
  5 14  1  0
  4  5  1  0
  5  6  1  0
  3  4  2  0
  2  3  1  0
  1 11  1  0
  4  8  1  0
  6  7  1  0
  1  2  1  0
  2  9  1  0
  1 10  1  0
  1 12  1  0
  8  9  2  0
  7  8  1  0
  9 18  1  0
  7 16  1  0
  7 17  1  0
M  END
$$$$

     RDKit          3D

 18 20  0  0  0  0  0  0  0  0999 V2000
   -1.2307   -1.8543   -1.7314 O   0  0  0  0  0  0  0  0  0  0  0  0
   -1.2775   -0.9887   -0.8954 C   0  0  0  0  0  0  0  0  0  0  0  0
   -2.4403   -0.3825   -0.0055 C   0  0  0  0  0  0  0  0  0  0  0  0
   -1.4312    0.6565    0.4330 N   0  0  0  0  0  0  0  0  0  0  0  0
   -0.3093   -0.1145   -0.1469 C   0  0  0  0  0  0  0  0  0  0  0  0
    0.9133    0.7063   -0.5973 C   0  0  0  0  0  0  0  0  0  0  0  0
    1.2462    0.9523    0.8697 C   0  0  0  0  0  0  0  0  0  0  0  0
    0.7441   -0.5312    0.8548 C   0  0  0  0  0  0  0  0  0  0  0  0
    1.7609   -0.6834   -0.3684 C   0  0  0  0  0  0  0  0  0  0  0  0
   -2.7226   -1.1134    0.7975 H   0  0  0  0  0  0  0  0  0  0  0  0
   -3.3034    0.0589   -0.5293 H   0  0  0  0  0  0  0  0  0  0  0  0
   -1.5849    1.5287   -0.0578 H   0  0  0  0  0  0  0  0  0  0  0  0
    1.0565    1.3606   -1.4471 H   0  0  0  0  0  0  0  0  0  0  0  0
    0.6572    1.6649    1.5030 H   0  0  0  0  0  0  0  0  0  0  0  0
    2.3096    1.2049    1.0089 H   0  0  0  0  0  0  0  0  0  0  0  0
    0.7501   -1.1211    1.7555 H   0  0  0  0  0  0  0  0  0  0  0  0
    2.0796   -0.6930   -1.5107 H   0  0  0  0  0  0  0  0  0  0  0  0
    2.7824   -0.6511    0.0672 H   0  0  0  0  0  0  0  0  0  0  0  0
  8 16  1  0
  7  8  1  0
  8  9  1  0
  5  8  1  0
  7 14  1  0
  7 15  1  0
  6  7  1  0
  3 10  1  0
  9 18  1  0
  1  2  2  0
  9 17  1  0
  6  9  1  0
  4 12  1  0
  2  5  1  0
  2  3  1  0
  4  5  1  0
  5  6  1  0
  3  4  1  0
  3 11  1  0
  6 13  1  0
M  END
$$$$

     RDKit          3D

 17 17  0  0  0  0  0  0  0  0999 V2000
   -0.3361    2.6852   -0.7972 C   0  0  0  0  0  0  0  0  0  0  0  0
    0.4422    1.3986   -0.3937 C   0  0  0  0  0  0  0  0  0  0  0  0
    1.6401    1.6531   -0.3750 O   0  0  0  0  0  0  0  0  0  0  0  0
   -0.1440    0.1414   -0.0756 C   0  0  0  0  0  0  0  0  0  0  0  0
   -0.2774    0.0498    1.3526 C   0  0  0  0  0  0  0  0  0  0  0  0
    0.6499   -0.8982    1.8022 O   0  0  0  0  0  0  0  0  0  0  0  0
    1.5448   -1.2953    0.3975 C   0  0  0  0  0  0  0  0  0  0  0  0
    0.3599   -1.3585   -0.1996 C   0  0  0  0  0  0  0  0  0  0  0  0
   -0.6555   -2.5550   -0.1831 C   0  0  0  0  0  0  0  0  0  0  0  0
   -1.3537    2.3840   -1.2917 H   0  0  0  0  0  0  0  0  0  0  0  0
   -0.0031    3.0200   -1.7563 H   0  0  0  0  0  0  0  0  0  0  0  0
   -0.6585    3.4234   -0.0577 H   0  0  0  0  0  0  0  0  0  0  0  0
   -0.8672    0.4791    2.2150 H   0  0  0  0  0  0  0  0  0  0  0  0
    2.1503   -0.5653   -0.1722 H   0  0  0  0  0  0  0  0  0  0  0  0
    0.0116   -3.2784   -0.6431 H   0  0  0  0  0  0  0  0  0  0  0  0
   -0.7377   -2.8266    0.8682 H   0  0  0  0  0  0  0  0  0  0  0  0
   -1.7658   -2.4574   -0.6902 H   0  0  0  0  0  0  0  0  0  0  0  0
  1 11  1  0
  9 15  1  0
  1 10  1  0
  2  3  2  0
  1  2  1  0
  1 12  1  0
  2  4  1  0
  8  9  1  0
  9 17  1  0
  9 16  1  0
  4  8  1  0
  4  5  2  0
  7  8  2  0
  5 13  1  0
  5  6  1  0
  6  7  1  0
  7 14  1  0
M  END
$$$$

     RDKit          3D

 19 21  0  0  0  0  0  0  0  0999 V2000
   -1.2516   -2.8751    0.1397 O   0  0  0  0  0  0  0  0  0  0  0  0
   -1.5112   -1.6980   -0.1319 C   0  0  0  0  0  0  0  0  0  0  0  0
   -0.6363   -0.6389    0.4867 C   0  0  0  0  0  0  0  0  0  0  0  0
   -1.3192   -0.0942    1.7112 C   0  0  0  0  0  0  0  0  0  0  0  0
   -0.8301    0.8382    0.5907 C   0  0  0  0  0  0  0  0  0  0  0  0
    0.6534    1.0711    0.3982 C   0  0  0  0  0  0  0  0  0  0  0  0
    1.5284    1.3153   -0.8189 C   0  0  0  0  0  0  0  0  0  0  0  0
    1.0024    0.0460   -1.4089 C   0  0  0  0  0  0  0  0  0  0  0  0
    0.7591   -0.4086    0.0383 C   0  0  0  0  0  0  0  0  0  0  0  0
   -2.2470   -1.3772   -1.0193 H   0  0  0  0  0  0  0  0  0  0  0  0
   -2.3478   -0.3032    1.8928 H   0  0  0  0  0  0  0  0  0  0  0  0
   -0.7564   -0.5280    2.4991 H   0  0  0  0  0  0  0  0  0  0  0  0
   -1.3720    1.1602   -0.3336 H   0  0  0  0  0  0  0  0  0  0  0  0
    1.2175    1.2982    1.3679 H   0  0  0  0  0  0  0  0  0  0  0  0
    1.3703    2.2051   -1.3726 H   0  0  0  0  0  0  0  0  0  0  0  0
    2.5922    1.1908   -0.4481 H   0  0  0  0  0  0  0  0  0  0  0  0
    1.6148   -0.4336   -2.1833 H   0  0  0  0  0  0  0  0  0  0  0  0
    0.0112    0.1571   -1.9781 H   0  0  0  0  0  0  0  0  0  0  0  0
    1.5222   -0.9251    0.5701 H   0  0  0  0  0  0  0  0  0  0  0  0
  6 14  1  0
  5 13  1  0
  5  6  1  0
  6  7  1  0
  6  9  1  0
  3  5  1  0
  4  5  1  0
  7 15  1  0
  9 19  1  0
  2 10  1  0
  2  3  1  0
  1  2  2  0
  7 16  1  0
  7  8  1  0
  3  9  1  0
  8  9  1  0
  3  4  1  0
  4 11  1  0
  4 12  1  0
  8 17  1  0
  8 18  1  0
M  END
$$$$

     RDKit          3D

 14 14  0  0  0  0  0  0  0  0999 V2000
    0.2414    2.2058   -0.3390 C   0  0  0  0  0  0  0  0  0  0  0  0
    0.9102    0.9875   -0.0296 O   0  0  0  0  0  0  0  0  0  0  0  0
    0.0872   -0.0849    0.0078 C   0  0  0  0  0  0  0  0  0  0  0  0
    0.5436   -1.3324    0.3525 C   0  0  0  0  0  0  0  0  0  0  0  0
    1.7429   -1.7858    0.6944 O   0  0  0  0  0  0  0  0  0  0  0  0
   -0.5475   -2.1546    0.2944 N   0  0  0  0  0  0  0  0  0  0  0  0
   -1.6825   -1.5222   -0.0746 N   0  0  0  0  0  0  0  0  0  0  0  0
   -1.2887   -0.2548   -0.2486 C   0  0  0  0  0  0  0  0  0  0  0  0
   -0.5401    2.4283    0.3969 H   0  0  0  0  0  0  0  0  0  0  0  0
   -0.1757    2.1797   -1.3529 H   0  0  0  0  0  0  0  0  0  0  0  0
    0.9790    3.0130   -0.3006 H   0  0  0  0  0  0  0  0  0  0  0  0
    2.3354   -1.0103    0.6524 H   0  0  0  0  0  0  0  0  0  0  0  0
   -0.5798   -3.1466    0.5005 H   0  0  0  0  0  0  0  0  0  0  0  0
   -2.0255    0.4772   -0.5536 H   0  0  0  0  0  0  0  0  0  0  0  0
  1 10  1  0
  5 12  1  0
  1  2  1  0
  2  3  1  0
  1  9  1  0
  1 11  1  0
  4  5  1  0
  3  4  2  0
  3  8  1  0
  4  6  1  0
  8 14  1  0
  7  8  2  0
  6 13  1  0
  6  7  1  0
M  END
$$$$

     RDKit          3D

 20 20  0  0  0  0  0  0  0  0999 V2000
    1.1583    1.9065    1.2788 C   0  0  0  0  0  0  0  0  0  0  0  0
    1.0160    0.7342    0.3076 C   0  0  0  0  0  0  0  0  0  0  0  0
   -0.4125    0.3184   -0.1196 C   0  0  0  0  0  0  0  0  0  0  0  0
   -0.4530    0.1960   -1.6375 N   0  0  0  0  0  0  0  0  0  0  0  0
   -0.3266   -1.2580   -1.4927 C   0  0  0  0  0  0  0  0  0  0  0  0
   -0.9125   -1.1838   -0.0808 C   0  0  0  0  0  0  0  0  0  0  0  0
   -0.1596   -2.1117    0.7943 N   0  0  0  0  0  0  0  0  0  0  0  0
   -1.4536    1.2621    0.2713 C   0  0  0  0  0  0  0  0  0  0  0  0
   -2.3362    1.9810    0.5020 N   0  0  0  0  0  0  0  0  0  0  0  0
    2.2281    2.1442    1.3642 H   0  0  0  0  0  0  0  0  0  0  0  0
    0.7285    1.6221    2.2465 H   0  0  0  0  0  0  0  0  0  0  0  0
    0.6456    2.8036    0.9180 H   0  0  0  0  0  0  0  0  0  0  0  0
    1.6135    0.9834   -0.6020 H   0  0  0  0  0  0  0  0  0  0  0  0
    1.5536   -0.1087    0.7553 H   0  0  0  0  0  0  0  0  0  0  0  0
   -1.3273    0.5021   -2.0489 H   0  0  0  0  0  0  0  0  0  0  0  0
    0.7167   -1.6109   -1.5928 H   0  0  0  0  0  0  0  0  0  0  0  0
   -0.8951   -1.8252   -2.2231 H   0  0  0  0  0  0  0  0  0  0  0  0
   -1.9901   -1.3428   -0.0530 H   0  0  0  0  0  0  0  0  0  0  0  0
   -0.2136   -3.0835    0.4755 H   0  0  0  0  0  0  0  0  0  0  0  0
    0.8198   -1.9292    0.9370 H   0  0  0  0  0  0  0  0  0  0  0  0
  8  9  3  0
  3  8  1  0
  5 16  1  0
  6 18  1  0
  5  6  1  0
  3  6  1  0
  6  7  1  0
  4  5  1  0
  5 17  1  0
  3  4  1  0
  2  3  1  0
  4 15  1  0
  1 11  1  0
  2 14  1  0
  7 19  1  0
  1  2  1  0
  2 13  1  0
  7 20  1  0
  1 10  1  0
  1 12  1  0
M  END
$$$$

     RDKit          3D

 19 20  0  0  0  0  0  0  0  0999 V2000
   -1.2703    2.4468    0.2114 C   0  0  0  0  0  0  0  0  0  0  0  0
   -0.7723    1.0589    0.0138 C   0  0  0  0  0  0  0  0  0  0  0  0
   -0.7776    0.3411   -1.1265 C   0  0  0  0  0  0  0  0  0  0  0  0
   -0.1550   -1.0105   -0.9249 C   0  0  0  0  0  0  0  0  0  0  0  0
    0.8296   -1.2343   -1.9188 O   0  0  0  0  0  0  0  0  0  0  0  0
    0.4357   -0.9283    0.4540 C   0  0  0  0  0  0  0  0  0  0  0  0
    1.8251   -1.4711    0.8916 C   0  0  0  0  0  0  0  0  0  0  0  0
    0.5436   -2.1109    1.1721 O   0  0  0  0  0  0  0  0  0  0  0  0
   -0.1276    0.2880    1.1390 C   0  0  0  0  0  0  0  0  0  0  0  0
   -0.5158    3.0379    0.7366 H   0  0  0  0  0  0  0  0  0  0  0  0
   -2.1897    2.4506    0.8065 H   0  0  0  0  0  0  0  0  0  0  0  0
   -1.4711    2.9538   -0.7469 H   0  0  0  0  0  0  0  0  0  0  0  0
   -1.1651    0.6811   -2.0838 H   0  0  0  0  0  0  0  0  0  0  0  0
   -0.9249   -1.7913   -0.9986 H   0  0  0  0  0  0  0  0  0  0  0  0
    1.0988   -2.1654   -1.8126 H   0  0  0  0  0  0  0  0  0  0  0  0
    2.4530   -2.3633    0.6890 H   0  0  0  0  0  0  0  0  0  0  0  0
    2.3953   -1.0735    0.0061 H   0  0  0  0  0  0  0  0  0  0  0  0
   -0.8850    0.0079    1.8909 H   0  0  0  0  0  0  0  0  0  0  0  0
    0.6732    0.8825    1.6012 H   0  0  0  0  0  0  0  0  0  0  0  0
  3 13  1  0
  5 15  1  0
  4  5  1  0
  3  4  1  0
  2  3  2  0
  1 11  1  0
  4 14  1  0
  4  6  1  0
  1  2  1  0
  2  9  1  0
  1 10  1  0
  1 12  1  0
  6  8  1  0
  6  9  1  0
  6  7  1  0
  7  8  1  0
  7 17  1  0
  9 19  1  0
  9 18  1  0
  7 16  1  0
M  END
$$$$

     RDKit          3D

 21 22  0  0  0  0  0  0  0  0999 V2000
    0.2764    2.6072   -0.8527 C   0  0  0  0  0  0  0  0  0  0  0  0
    0.7757    1.6492    0.2069 C   0  0  0  0  0  0  0  0  0  0  0  0
    0.1272    0.2685    0.0844 C   0  0  0  0  0  0  0  0  0  0  0  0
    0.5763   -0.7492    1.1055 C   0  0  0  0  0  0  0  0  0  0  0  0
   -0.2867   -1.8089    0.4359 C   0  0  0  0  0  0  0  0  0  0  0  0
   -1.6415   -1.0922    0.4788 C   0  0  0  0  0  0  0  0  0  0  0  0
   -1.3076    0.2858    0.2392 O   0  0  0  0  0  0  0  0  0  0  0  0
    0.2438   -1.7440   -0.9863 C   0  0  0  0  0  0  0  0  0  0  0  0
    0.4321   -0.3386   -1.1807 O   0  0  0  0  0  0  0  0  0  0  0  0
   -0.0354    2.0930   -1.7720 H   0  0  0  0  0  0  0  0  0  0  0  0
    1.0520    3.3230   -1.1115 H   0  0  0  0  0  0  0  0  0  0  0  0
   -0.5816    3.1768   -0.4815 H   0  0  0  0  0  0  0  0  0  0  0  0
    1.8574    1.5423    0.1206 H   0  0  0  0  0  0  0  0  0  0  0  0
    0.5788    2.0781    1.2006 H   0  0  0  0  0  0  0  0  0  0  0  0
    1.6603   -0.9784    1.0817 H   0  0  0  0  0  0  0  0  0  0  0  0
    0.2441   -0.5029    2.1306 H   0  0  0  0  0  0  0  0  0  0  0  0
   -0.2709   -2.8132    0.8932 H   0  0  0  0  0  0  0  0  0  0  0  0
   -2.3509   -1.4508   -0.2714 H   0  0  0  0  0  0  0  0  0  0  0  0
   -2.0818   -1.1475    1.4854 H   0  0  0  0  0  0  0  0  0  0  0  0
   -0.4665   -2.1481   -1.7060 H   0  0  0  0  0  0  0  0  0  0  0  0
    1.1986   -2.2503   -1.1007 H   0  0  0  0  0  0  0  0  0  0  0  0
  6 18  1  0
  6 19  1  0
  5  6  1  0
  6  7  1  0
  5 17  1  0
  8 21  1  0
  5  8  1  0
  4  5  1  0
  3  7  1  0
  8 20  1  0
  8  9  1  0
  4 16  1  0
  3  4  1  0
  4 15  1  0
  3  9  1  0
  2  3  1  0
  1 11  1  0
  1  2  1  0
  2 14  1  0
  2 13  1  0
  1 10  1  0
  1 12  1  0
M  END
$$$$

     RDKit          3D

 23 23  0  0  0  0  0  0  0  0999 V2000
   -2.0123    1.4781   -0.5119 C   0  0  0  0  0  0  0  0  0  0  0  0
   -1.8192    0.0986    0.1132 C   0  0  0  0  0  0  0  0  0  0  0  0
   -0.5287   -0.6924    0.0246 C   0  0  0  0  0  0  0  0  0  0  0  0
   -0.2036   -1.1677    1.3404 O   0  0  0  0  0  0  0  0  0  0  0  0
    0.9319   -2.0507    1.1557 C   0  0  0  0  0  0  0  0  0  0  0  0
    1.7569   -1.4358    0.0376 C   0  0  0  0  0  0  0  0  0  0  0  0
    0.8211   -0.4037   -0.6804 C   0  0  0  0  0  0  0  0  0  0  0  0
    1.5863    0.7888   -0.5778 O   0  0  0  0  0  0  0  0  0  0  0  0
    1.0245    1.9978   -0.1593 C   0  0  0  0  0  0  0  0  0  0  0  0
   -1.8676    1.4652   -1.5857 H   0  0  0  0  0  0  0  0  0  0  0  0
   -3.0346    1.7865   -0.3671 H   0  0  0  0  0  0  0  0  0  0  0  0
   -1.4327    2.2646   -0.0751 H   0  0  0  0  0  0  0  0  0  0  0  0
   -2.5515   -0.5653   -0.3547 H   0  0  0  0  0  0  0  0  0  0  0  0
   -2.1189    0.1484    1.1784 H   0  0  0  0  0  0  0  0  0  0  0  0
   -0.8599   -1.6356   -0.4970 H   0  0  0  0  0  0  0  0  0  0  0  0
    1.5116   -2.1895    2.0730 H   0  0  0  0  0  0  0  0  0  0  0  0
    0.5339   -3.0468    0.8713 H   0  0  0  0  0  0  0  0  0  0  0  0
    2.1514   -2.2304   -0.6254 H   0  0  0  0  0  0  0  0  0  0  0  0
    2.6001   -0.8819    0.5239 H   0  0  0  0  0  0  0  0  0  0  0  0
    0.7861   -0.6772   -1.7420 H   0  0  0  0  0  0  0  0  0  0  0  0
    0.5085    1.8214    0.8032 H   0  0  0  0  0  0  0  0  0  0  0  0
    1.8308    2.7092   -0.0063 H   0  0  0  0  0  0  0  0  0  0  0  0
    0.3862    2.4184   -0.9386 H   0  0  0  0  0  0  0  0  0  0  0  0
  2 14  1  0
  1 11  1  0
  9 21  1  0
  9 22  1  0
  2 13  1  0
  1  2  1  0
  2  3  1  0
  8  9  1  0
  9 23  1  0
  1 10  1  0
  1 12  1  0
  7  8  1  0
  7 20  1  0
  3  7  1  0
  6  7  1  0
  3 15  1  0
  3  4  1  0
  4  5  1  0
  6 19  1  0
  6 18  1  0
  5  6  1  0
  5 16  1  0
  5 17  1  0
M  END
$$$$

     RDKit          3D

 21 20  0  0  0  0  0  0  0  0999 V2000
    0.5168    2.8240   -1.6649 C   0  0  0  0  0  0  0  0  0  0  0  0
    0.9198    1.3976   -1.6744 C   0  0  0  0  0  0  0  0  0  0  0  0
    1.1423    0.2359   -1.5097 C   0  0  0  0  0  0  0  0  0  0  0  0
    1.3039   -1.1339   -1.0378 C   0  0  0  0  0  0  0  0  0  0  0  0
   -0.0019   -1.7073   -0.4538 C   0  0  0  0  0  0  0  0  0  0  0  0
   -1.0098   -0.7066    0.1195 C   0  0  0  0  0  0  0  0  0  0  0  0
   -0.4621    0.1315    1.2935 C   0  0  0  0  0  0  0  0  0  0  0  0
   -0.8723   -0.4584    2.5979 C   0  0  0  0  0  0  0  0  0  0  0  0
   -1.1977   -0.9590    3.6358 C   0  0  0  0  0  0  0  0  0  0  0  0
    1.3523    3.4547   -2.0171 H   0  0  0  0  0  0  0  0  0  0  0  0
    0.2997    3.1017   -0.6153 H   0  0  0  0  0  0  0  0  0  0  0  0
   -0.3801    2.9619   -2.2741 H   0  0  0  0  0  0  0  0  0  0  0  0
    1.6528   -1.7875   -1.8407 H   0  0  0  0  0  0  0  0  0  0  0  0
    2.0939   -1.2027   -0.2595 H   0  0  0  0  0  0  0  0  0  0  0  0
   -0.5418   -2.2160   -1.2950 H   0  0  0  0  0  0  0  0  0  0  0  0
    0.2371   -2.5316    0.2685 H   0  0  0  0  0  0  0  0  0  0  0  0
   -1.3737   -0.0718   -0.7077 H   0  0  0  0  0  0  0  0  0  0  0  0
   -1.8776   -1.2925    0.4337 H   0  0  0  0  0  0  0  0  0  0  0  0
   -0.8634    1.1572    1.2302 H   0  0  0  0  0  0  0  0  0  0  0  0
    0.6230    0.2147    1.2267 H   0  0  0  0  0  0  0  0  0  0  0  0
   -1.5611   -1.4119    4.5439 H   0  0  0  0  0  0  0  0  0  0  0  0
  4 13  1  0
  6 17  1  0
  5 16  1  0
  7 20  1  0
  1 11  1  0
  9 21  1  0
  8  9  3  0
  3  4  1  0
  4  5  1  0
  4 14  1  0
  5  6  1  0
  6  7  1  0
  6 18  1  0
  7  8  1  0
  2  3  3  0
  5 15  1  0
  7 19  1  0
  1  2  1  0
  1 10  1  0
  1 12  1  0
M  END
$$$$

     RDKit          3D

 22 23  0  0  0  0  0  0  0  0999 V2000
   -1.8371    0.9432   -0.6262 C   0  0  0  0  0  0  0  0  0  0  0  0
   -0.6834    0.2654    0.0940 C   0  0  0  0  0  0  0  0  0  0  0  0
    0.6246    1.0013   -0.1437 C   0  0  0  0  0  0  0  0  0  0  0  0
    1.1013    2.4312    0.0347 C   0  0  0  0  0  0  0  0  0  0  0  0
    1.1454    0.1547   -1.1568 C   0  0  0  0  0  0  0  0  0  0  0  0
    1.0906   -1.2898   -0.7374 C   0  0  0  0  0  0  0  0  0  0  0  0
    0.0415   -2.2491   -0.9315 N   0  0  0  0  0  0  0  0  0  0  0  0
   -0.3179   -1.2110    0.0615 C   0  0  0  0  0  0  0  0  0  0  0  0
   -0.3776   -2.0102    1.4700 C   0  0  0  0  0  0  0  0  0  0  0  0
   -1.4269    1.5474   -1.5513 H   0  0  0  0  0  0  0  0  0  0  0  0
   -1.8829    2.0013    0.0450 H   0  0  0  0  0  0  0  0  0  0  0  0
   -2.6918    0.3814   -1.1283 H   0  0  0  0  0  0  0  0  0  0  0  0
   -1.2335    0.1528    1.0972 H   0  0  0  0  0  0  0  0  0  0  0  0
    1.4540    2.7444    1.1782 H   0  0  0  0  0  0  0  0  0  0  0  0
    1.8345    2.6645   -0.7144 H   0  0  0  0  0  0  0  0  0  0  0  0
    0.2880    3.1807    0.0083 H   0  0  0  0  0  0  0  0  0  0  0  0
    1.9767    0.4331   -1.9308 H   0  0  0  0  0  0  0  0  0  0  0  0
    2.0315   -1.6612   -0.1501 H   0  0  0  0  0  0  0  0  0  0  0  0
    0.2567   -3.1550   -0.5215 H   0  0  0  0  0  0  0  0  0  0  0  0
    0.1991   -2.9318    1.6510 H   0  0  0  0  0  0  0  0  0  0  0  0
   -1.5096   -2.0821    1.6816 H   0  0  0  0  0  0  0  0  0  0  0  0
   -0.0832   -1.3112    2.2707 H   0  0  0  0  0  0  0  0  0  0  0  0
  4 15  1  0
  4 16  1  0
  4 14  1  0
  3  4  1  0
  5 17  1  0
  3  5  2  0
  2  3  1  0
  1 11  1  0
  5  6  1  0
  2 13  1  0
  1  2  1  0
  2  8  1  0
  1 10  1  0
  1 12  1  0
  6 18  1  0
  6  8  1  0
  6  7  1  0
  7  8  1  0
  8  9  1  0
  7 19  1  0
  9 21  1  0
  9 20  1  0
  9 22  1  0
M  END
$$$$

     RDKit          3D

 19 20  0  0  0  0  0  0  0  0999 V2000
    1.6023    1.9205    0.3476 O   0  0  0  0  0  0  0  0  0  0  0  0
    0.5793    0.9038    0.4673 C   0  0  0  0  0  0  0  0  0  0  0  0
    0.1840    0.2592    1.6819 C   0  0  0  0  0  0  0  0  0  0  0  0
    1.0267   -0.4984    0.6809 C   0  0  0  0  0  0  0  0  0  0  0  0
    1.3496   -0.5151   -0.9110 C   0  0  0  0  0  0  0  0  0  0  0  0
    0.0901    0.4737   -0.9477 C   0  0  0  0  0  0  0  0  0  0  0  0
   -1.3166    0.0630   -1.4217 C   0  0  0  0  0  0  0  0  0  0  0  0
   -2.0764   -0.7563   -0.4849 C   0  0  0  0  0  0  0  0  0  0  0  0
   -2.6231   -1.6064    0.2083 C   0  0  0  0  0  0  0  0  0  0  0  0
    2.3149    1.8670    1.0427 H   0  0  0  0  0  0  0  0  0  0  0  0
   -0.8612   -0.0703    1.7935 H   0  0  0  0  0  0  0  0  0  0  0  0
    0.5143    0.5911    2.7256 H   0  0  0  0  0  0  0  0  0  0  0  0
    1.9517   -0.8635    1.2172 H   0  0  0  0  0  0  0  0  0  0  0  0
    2.4208   -0.2660   -0.9036 H   0  0  0  0  0  0  0  0  0  0  0  0
    1.0762   -1.5322   -1.1949 H   0  0  0  0  0  0  0  0  0  0  0  0
    0.1758    1.5656   -1.2045 H   0  0  0  0  0  0  0  0  0  0  0  0
   -1.2241   -0.4397   -2.3635 H   0  0  0  0  0  0  0  0  0  0  0  0
   -1.8305    1.0328   -1.5839 H   0  0  0  0  0  0  0  0  0  0  0  0
   -3.3538   -2.1288    0.8507 H   0  0  0  0  0  0  0  0  0  0  0  0
  3 11  1  0
  3 12  1  0
  2  3  1  0
  3  4  1  0
  1 10  1  0
  7 17  1  0
  1  2  1  0
  2  4  1  0
  2  6  1  0
  4 13  1  0
  4  5  1  0
  7 18  1  0
  5 15  1  0
  6  7  1  0
  7  8  1  0
  5  6  1  0
  6 16  1  0
  5 14  1  0
  8  9  3  0
  9 19  1  0
M  END
$$$$

     RDKit          3D

 17 16  0  0  0  0  0  0  0  0999 V2000
   -0.2296    2.5944   -0.4914 C   0  0  0  0  0  0  0  0  0  0  0  0
    0.2532    1.2567   -0.4024 O   0  0  0  0  0  0  0  0  0  0  0  0
   -0.4347    0.5230    0.6203 C   0  0  0  0  0  0  0  0  0  0  0  0
    0.1610   -0.8893    0.6895 C   0  0  0  0  0  0  0  0  0  0  0  0
    1.5422   -0.7716    1.0646 O   0  0  0  0  0  0  0  0  0  0  0  0
    0.0660   -1.6119   -0.6592 C   0  0  0  0  0  0  0  0  0  0  0  0
   -0.0355   -3.0637   -0.4546 C   0  0  0  0  0  0  0  0  0  0  0  0
   -0.1572   -4.2106   -0.3059 N   0  0  0  0  0  0  0  0  0  0  0  0
    0.2666    3.0859   -1.3326 H   0  0  0  0  0  0  0  0  0  0  0  0
   -1.3119    2.6016   -0.6661 H   0  0  0  0  0  0  0  0  0  0  0  0
    0.0124    3.1397    0.4278 H   0  0  0  0  0  0  0  0  0  0  0  0
   -1.5037    0.4775    0.3881 H   0  0  0  0  0  0  0  0  0  0  0  0
   -0.2878    1.0316    1.5773 H   0  0  0  0  0  0  0  0  0  0  0  0
   -0.3478   -1.4452    1.4857 H   0  0  0  0  0  0  0  0  0  0  0  0
    1.9015   -0.0256    0.5459 H   0  0  0  0  0  0  0  0  0  0  0  0
    0.9386   -1.3975   -1.2858 H   0  0  0  0  0  0  0  0  0  0  0  0
   -0.8333   -1.2950   -1.2013 H   0  0  0  0  0  0  0  0  0  0  0  0
  1 10  1  0
  5 15  1  0
  4  5  1  0
  1  2  1  0
  1  9  1  0
  1 11  1  0
  2  3  1  0
  4 14  1  0
  3  4  1  0
  4  6  1  0
  3 12  1  0
  3 13  1  0
  7  8  3  0
  6  7  1  0
  6 16  1  0
  6 17  1  0
M  END
$$$$

     RDKit          3D

 20 21  0  0  0  0  0  0  0  0999 V2000
    1.8180    0.4667    1.3093 C   0  0  0  0  0  0  0  0  0  0  0  0
    0.2896    0.7625    1.5341 C   0  0  0  0  0  0  0  0  0  0  0  0
    0.0243    0.1768    0.1924 C   0  0  0  0  0  0  0  0  0  0  0  0
    1.4880    0.6963   -0.1934 C   0  0  0  0  0  0  0  0  0  0  0  0
   -1.0225    0.6207   -0.9108 C   0  0  0  0  0  0  0  0  0  0  0  0
   -1.7743   -0.6855   -1.3381 C   0  0  0  0  0  0  0  0  0  0  0  0
   -0.9986   -1.7339   -0.6861 C   0  0  0  0  0  0  0  0  0  0  0  0
   -0.0859   -1.3861    0.2006 C   0  0  0  0  0  0  0  0  0  0  0  0
    2.4828    1.1944    1.7531 H   0  0  0  0  0  0  0  0  0  0  0  0
    2.1986   -0.5588    1.5006 H   0  0  0  0  0  0  0  0  0  0  0  0
    0.0567    1.8053    1.7427 H   0  0  0  0  0  0  0  0  0  0  0  0
   -0.1653    0.1901    2.3249 H   0  0  0  0  0  0  0  0  0  0  0  0
    2.0493    0.1067   -1.0668 H   0  0  0  0  0  0  0  0  0  0  0  0
    1.3886    1.7971   -0.4908 H   0  0  0  0  0  0  0  0  0  0  0  0
   -0.3972    1.0022   -1.8231 H   0  0  0  0  0  0  0  0  0  0  0  0
   -1.6841    1.5248   -0.6254 H   0  0  0  0  0  0  0  0  0  0  0  0
   -2.8134   -0.7355   -1.0522 H   0  0  0  0  0  0  0  0  0  0  0  0
   -1.6257   -0.7521   -2.4345 H   0  0  0  0  0  0  0  0  0  0  0  0
   -0.8583   -2.6809   -1.1309 H   0  0  0  0  0  0  0  0  0  0  0  0
   -0.3708   -1.8109    1.1945 H   0  0  0  0  0  0  0  0  0  0  0  0
  4 14  1  0
  1 10  1  0
  2 11  1  0
  5 16  1  0
  5 15  1  0
  1  4  1  0
  1  2  1  0
  1  9  1  0
  4 13  1  0
  3  4  1  0
  2  3  1  0
  2 12  1  0
  3  5  1  0
  5  6  1  0
  3  8  1  0
  6 18  1  0
  6 17  1  0
  6  7  1  0
  7  8  2  0
  8 20  1  0
  7 19  1  0
M  END
$$$$

     RDKit          3D

 17 17  0  0  0  0  0  0  0  0999 V2000
   -0.8942    2.1233   -0.2890 C   0  0  0  0  0  0  0  0  0  0  0  0
   -0.2388    0.8845    0.2138 N   0  0  0  0  0  0  0  0  0  0  0  0
    0.8626    0.4843   -0.6664 C   0  0  0  0  0  0  0  0  0  0  0  0
    0.8648   -1.0870   -0.8992 C   0  0  0  0  0  0  0  0  0  0  0  0
   -0.3453   -1.6321   -1.0223 N   0  0  0  0  0  0  0  0  0  0  0  0
   -0.8580   -2.0470    0.1646 C   0  0  0  0  0  0  0  0  0  0  0  0
   -0.0213   -2.0599    1.2690 C   0  0  0  0  0  0  0  0  0  0  0  0
    1.3652   -2.0165    1.1130 N   0  0  0  0  0  0  0  0  0  0  0  0
    1.8012   -1.6941   -0.1206 N   0  0  0  0  0  0  0  0  0  0  0  0
   -1.2131    2.7345    0.5413 H   0  0  0  0  0  0  0  0  0  0  0  0
   -0.1796    2.7056   -0.8966 H   0  0  0  0  0  0  0  0  0  0  0  0
   -1.8097    1.8218   -0.8716 H   0  0  0  0  0  0  0  0  0  0  0  0
    0.2456    1.2204    1.0748 H   0  0  0  0  0  0  0  0  0  0  0  0
    0.8691    0.9460   -1.6515 H   0  0  0  0  0  0  0  0  0  0  0  0
    1.7826    0.7111   -0.0826 H   0  0  0  0  0  0  0  0  0  0  0  0
   -1.9655   -1.9641    0.2120 H   0  0  0  0  0  0  0  0  0  0  0  0
   -0.2656   -1.1308    1.9113 H   0  0  0  0  0  0  0  0  0  0  0  0
  6 16  1  0
  1 10  1  0
  1 11  1  0
  5  6  1  0
  6  7  2  0
  7 17  1  0
  1 12  1  0
  1  2  1  0
  4  5  2  0
  7  8  1  0
  2 13  1  0
  2  3  1  0
  4  9  1  0
  3  4  1  0
  8  9  2  0
  3 15  1  0
  3 14  1  0
M  END
$$$$

     RDKit          3D

 23 23  0  0  0  0  0  0  0  0999 V2000
    2.1668   -0.6626    0.5415 C   0  0  0  0  0  0  0  0  0  0  0  0
    0.8181   -0.8695    0.0757 C   0  0  0  0  0  0  0  0  0  0  0  0
    0.4828   -0.4305   -1.3543 C   0  0  0  0  0  0  0  0  0  0  0  0
   -0.1653    0.4121   -2.4190 C   0  0  0  0  0  0  0  0  0  0  0  0
   -0.2132    0.1476   -0.0293 C   0  0  0  0  0  0  0  0  0  0  0  0
    0.0754    1.5880    0.3917 C   0  0  0  0  0  0  0  0  0  0  0  0
   -1.5649   -0.4682    0.4251 C   0  0  0  0  0  0  0  0  0  0  0  0
   -1.8325   -0.3220    1.9398 C   0  0  0  0  0  0  0  0  0  0  0  0
   -2.3505   -1.0226   -0.3556 O   0  0  0  0  0  0  0  0  0  0  0  0
    2.1310   -0.1118    1.5055 H   0  0  0  0  0  0  0  0  0  0  0  0
    2.8365   -0.1580   -0.1221 H   0  0  0  0  0  0  0  0  0  0  0  0
    2.7353   -1.5665    0.8038 H   0  0  0  0  0  0  0  0  0  0  0  0
    0.4838   -1.8937    0.2245 H   0  0  0  0  0  0  0  0  0  0  0  0
    0.3619   -1.4599   -1.7981 H   0  0  0  0  0  0  0  0  0  0  0  0
    0.2687    0.1353   -3.4042 H   0  0  0  0  0  0  0  0  0  0  0  0
   -1.2519    0.1996   -2.5287 H   0  0  0  0  0  0  0  0  0  0  0  0
    0.0230    1.5022   -2.3870 H   0  0  0  0  0  0  0  0  0  0  0  0
    1.1530    1.7288    0.6038 H   0  0  0  0  0  0  0  0  0  0  0  0
   -0.4737    1.9063    1.3258 H   0  0  0  0  0  0  0  0  0  0  0  0
   -0.2117    2.2988   -0.3771 H   0  0  0  0  0  0  0  0  0  0  0  0
   -1.7867   -1.3143    2.4031 H   0  0  0  0  0  0  0  0  0  0  0  0
   -0.9063    0.1603    2.4307 H   0  0  0  0  0  0  0  0  0  0  0  0
   -2.7796    0.2004    2.1045 H   0  0  0  0  0  0  0  0  0  0  0  0
  1 11  1  0
  1 12  1  0
  1 10  1  0
  1  2  1  0
  4 17  1  0
  2 13  1  0
  2  3  1  0
  2  5  1  0
  4 15  1  0
  3  4  1  0
  4 16  1  0
  3 14  1  0
  3  5  1  0
  6 18  1  0
  5  6  1  0
  5  7  1  0
  7  9  2  0
  6 19  1  0
  6 20  1  0
  7  8  1  0
  8 21  1  0
  8 22  1  0
  8 23  1  0
M  END
$$$$

     RDKit          3D

 23 23  0  0  0  0  0  0  0  0999 V2000
    0.1733    2.4640   -1.4851 C   0  0  0  0  0  0  0  0  0  0  0  0
   -0.8492    1.3849   -1.4062 C   0  0  0  0  0  0  0  0  0  0  0  0
   -0.2793   -0.0402   -1.4012 C   0  0  0  0  0  0  0  0  0  0  0  0
   -0.0335   -0.9851   -0.1294 C   0  0  0  0  0  0  0  0  0  0  0  0
   -1.1447   -1.9064    0.1077 O   0  0  0  0  0  0  0  0  0  0  0  0
   -0.7319   -2.5485    1.3781 C   0  0  0  0  0  0  0  0  0  0  0  0
   -0.2907   -1.3335    2.1647 C   0  0  0  0  0  0  0  0  0  0  0  0
    0.3567   -0.5851    1.2659 C   0  0  0  0  0  0  0  0  0  0  0  0
    1.5094    0.2416    1.5511 C   0  0  0  0  0  0  0  0  0  0  0  0
   -0.0595    3.3552   -0.9366 H   0  0  0  0  0  0  0  0  0  0  0  0
    1.0987    2.0851   -1.0726 H   0  0  0  0  0  0  0  0  0  0  0  0
    0.5047    2.7180   -2.4937 H   0  0  0  0  0  0  0  0  0  0  0  0
   -1.5023    1.5474   -2.2819 H   0  0  0  0  0  0  0  0  0  0  0  0
   -1.4340    1.6253   -0.5215 H   0  0  0  0  0  0  0  0  0  0  0  0
   -1.0466   -0.6053   -1.9929 H   0  0  0  0  0  0  0  0  0  0  0  0
    0.6783   -0.0396   -1.9406 H   0  0  0  0  0  0  0  0  0  0  0  0
    0.7825   -1.5960   -0.4969 H   0  0  0  0  0  0  0  0  0  0  0  0
   -1.6570   -2.9628    1.8914 H   0  0  0  0  0  0  0  0  0  0  0  0
   -0.1543   -3.4337    1.1036 H   0  0  0  0  0  0  0  0  0  0  0  0
   -1.3199   -0.8256    2.0370 H   0  0  0  0  0  0  0  0  0  0  0  0
    1.5562    0.8092    0.6460 H   0  0  0  0  0  0  0  0  0  0  0  0
    1.4007    0.9734    2.3906 H   0  0  0  0  0  0  0  0  0  0  0  0
    2.4423   -0.3423    1.6227 H   0  0  0  0  0  0  0  0  0  0  0  0
  7 20  1  0
  9 21  1  0
  9 22  1  0
  7  8  2  0
  6  7  1  0
  8  9  1  0
  9 23  1  0
  6 19  1  0
  4  8  1  0
  6 18  1  0
  5  6  1  0
  3 15  1  0
  3 16  1  0
  3  4  1  0
  4  5  1  0
  4 17  1  0
  2  3  1  0
  1 11  1  0
  1 10  1  0
  1  2  1  0
  1 12  1  0
  2 14  1  0
  2 13  1  0
M  END
$$$$

     RDKit          3D

 20 22  0  0  0  0  0  0  0  0999 V2000
   -0.3739    2.4612   -1.6046 C   0  0  0  0  0  0  0  0  0  0  0  0
   -1.0272    1.2350   -1.3889 O   0  0  0  0  0  0  0  0  0  0  0  0
   -0.5711    0.5205   -0.1428 C   0  0  0  0  0  0  0  0  0  0  0  0
    0.7163    0.9614    0.6367 C   0  0  0  0  0  0  0  0  0  0  0  0
    1.1726    0.2684    1.9392 C   0  0  0  0  0  0  0  0  0  0  0  0
    1.4416   -0.2294    0.3130 N   0  0  0  0  0  0  0  0  0  0  0  0
    0.2292   -0.8414   -0.3006 C   0  0  0  0  0  0  0  0  0  0  0  0
   -0.5411   -2.1082    0.4500 C   0  0  0  0  0  0  0  0  0  0  0  0
   -0.0295   -2.5534   -0.8810 C   0  0  0  0  0  0  0  0  0  0  0  0
    0.5553    2.9508   -1.2401 H   0  0  0  0  0  0  0  0  0  0  0  0
   -1.2857    3.1462   -1.0771 H   0  0  0  0  0  0  0  0  0  0  0  0
   -0.2492    2.5137   -2.8581 H   0  0  0  0  0  0  0  0  0  0  0  0
   -1.4423    0.7042    0.4636 H   0  0  0  0  0  0  0  0  0  0  0  0
    0.9393    2.0026    1.1124 H   0  0  0  0  0  0  0  0  0  0  0  0
    1.5934   -0.5902    2.5188 H   0  0  0  0  0  0  0  0  0  0  0  0
    0.3334   -0.3475    2.3622 H   0  0  0  0  0  0  0  0  0  0  0  0
   -1.3883   -2.4436    1.2923 H   0  0  0  0  0  0  0  0  0  0  0  0
   -1.7393   -1.6334    0.4472 H   0  0  0  0  0  0  0  0  0  0  0  0
    1.1062   -2.4525   -1.4082 H   0  0  0  0  0  0  0  0  0  0  0  0
    0.5601   -3.5645   -0.6341 H   0  0  0  0  0  0  0  0  0  0  0  0
  9 20  1  0
  9 19  1  0
  7  9  1  0
  8  9  1  0
  3 13  1  0
  6  7  1  0
  7  8  1  0
  3  7  1  0
  4  6  1  0
  5  6  1  0
  8 17  1  0
  8 18  1  0
  3  4  1  0
  2  3  1  0
  4 14  1  0
  4  5  1  0
  1 11  1  0
  1  2  1  0
  5 15  1  0
  5 16  1  0
  1 10  1  0
  1 12  1  0
M  END
$$$$

     RDKit          3D

 20 22  0  0  0  0  0  0  0  0999 V2000
   -1.6978    1.8500   -0.5234 C   0  0  0  0  0  0  0  0  0  0  0  0
   -0.7399    0.7054   -0.8212 C   0  0  0  0  0  0  0  0  0  0  0  0
    0.7789    0.9928   -0.6095 C   0  0  0  0  0  0  0  0  0  0  0  0
    0.5454    0.9502    0.8576 O   0  0  0  0  0  0  0  0  0  0  0  0
   -0.2648   -0.1964    0.3788 C   0  0  0  0  0  0  0  0  0  0  0  0
   -0.9882   -1.0321    1.3450 C   0  0  0  0  0  0  0  0  0  0  0  0
    0.9263   -0.5030   -0.5493 C   0  0  0  0  0  0  0  0  0  0  0  0
    1.7295   -1.6566    0.1181 C   0  0  0  0  0  0  0  0  0  0  0  0
    2.4564   -0.6032   -0.4266 N   0  0  0  0  0  0  0  0  0  0  0  0
   -1.9937    2.3579   -1.4525 H   0  0  0  0  0  0  0  0  0  0  0  0
   -1.2339    2.6216    0.1301 H   0  0  0  0  0  0  0  0  0  0  0  0
   -2.5975    1.4543   -0.0272 H   0  0  0  0  0  0  0  0  0  0  0  0
   -1.0314    0.1817   -1.7328 H   0  0  0  0  0  0  0  0  0  0  0  0
    1.3883    1.8036   -0.9833 H   0  0  0  0  0  0  0  0  0  0  0  0
   -0.5505   -1.0277    2.3621 H   0  0  0  0  0  0  0  0  0  0  0  0
   -1.0567   -2.0714    1.0117 H   0  0  0  0  0  0  0  0  0  0  0  0
   -2.0127   -0.6845    1.4592 H   0  0  0  0  0  0  0  0  0  0  0  0
    1.7478   -2.6071   -0.3868 H   0  0  0  0  0  0  0  0  0  0  0  0
    1.7497   -1.7229    1.1914 H   0  0  0  0  0  0  0  0  0  0  0  0
    2.8451   -0.8127   -1.3415 H   0  0  0  0  0  0  0  0  0  0  0  0
  3 14  1  0
  8 19  1  0
  1 11  1  0
  2  3  1  0
  3  7  1  0
  3  4  1  0
  2 13  1  0
  9 20  1  0
  7  8  1  0
  8  9  1  0
  8 18  1  0
  1  2  1  0
  2  5  1  0
  1 10  1  0
  1 12  1  0
  7  9  1  0
  5  7  1  0
  4  5  1  0
  5  6  1  0
  6 16  1  0
  6 15  1  0
  6 17  1  0
M  END
$$$$

     RDKit          3D

 18 19  0  0  0  0  0  0  0  0999 V2000
   -0.0674   -3.3843    1.4425 O   0  0  0  0  0  0  0  0  0  0  0  0
   -0.7347   -2.5351    0.8613 C   0  0  0  0  0  0  0  0  0  0  0  0
   -0.3155   -1.3874    0.2417 N   0  0  0  0  0  0  0  0  0  0  0  0
   -0.5604   -0.0975    0.7789 C   0  0  0  0  0  0  0  0  0  0  0  0
   -1.1249    0.9348   -0.1625 C   0  0  0  0  0  0  0  0  0  0  0  0
   -0.0493    1.8481   -0.7695 C   0  0  0  0  0  0  0  0  0  0  0  0
    1.2089    1.1136   -1.1497 C   0  0  0  0  0  0  0  0  0  0  0  0
    1.5948   -0.0387   -0.5642 C   0  0  0  0  0  0  0  0  0  0  0  0
    0.8549   -0.6795    0.5230 C   0  0  0  0  0  0  0  0  0  0  0  0
   -1.8452   -2.5965    0.8197 H   0  0  0  0  0  0  0  0  0  0  0  0
   -0.9418   -0.0274    1.7759 H   0  0  0  0  0  0  0  0  0  0  0  0
   -1.9112    1.5078    0.3500 H   0  0  0  0  0  0  0  0  0  0  0  0
   -1.6340    0.4103   -0.9709 H   0  0  0  0  0  0  0  0  0  0  0  0
    0.2275    2.6395   -0.0740 H   0  0  0  0  0  0  0  0  0  0  0  0
   -0.4582    2.3533   -1.6478 H   0  0  0  0  0  0  0  0  0  0  0  0
    1.8217    1.5302   -1.9427 H   0  0  0  0  0  0  0  0  0  0  0  0
    2.5071   -0.5251   -0.8683 H   0  0  0  0  0  0  0  0  0  0  0  0
    1.4278   -1.0659    1.3566 H   0  0  0  0  0  0  0  0  0  0  0  0
  9 18  1  0
  4 11  1  0
  3  9  1  0
  3  4  1  0
  2  3  1  0
  4  9  1  0
  8  9  1  0
  4  5  1  0
  2 10  1  0
  1  2  2  0
  8 17  1  0
  7  8  2  0
  5 13  1  0
  5 12  1  0
  5  6  1  0
  6  7  1  0
  7 16  1  0
  6 15  1  0
  6 14  1  0
M  END
$$$$

     RDKit          3D

 15 16  0  0  0  0  0  0  0  0999 V2000
    1.4664   -2.3496    0.7423 O   0  0  0  0  0  0  0  0  0  0  0  0
    1.0650   -1.2634    0.3798 C   0  0  0  0  0  0  0  0  0  0  0  0
    1.3607    0.1761    0.8413 C   0  0  0  0  0  0  0  0  0  0  0  0
    0.5832    0.6718   -0.4070 C   0  0  0  0  0  0  0  0  0  0  0  0
   -0.6977    1.3913   -0.1107 C   0  0  0  0  0  0  0  0  0  0  0  0
   -1.7729    0.5854   -0.0577 C   0  0  0  0  0  0  0  0  0  0  0  0
   -1.3610   -0.8121   -0.3469 C   0  0  0  0  0  0  0  0  0  0  0  0
   -2.1473   -1.7452   -0.2729 O   0  0  0  0  0  0  0  0  0  0  0  0
    0.1368   -0.7866   -0.7374 C   0  0  0  0  0  0  0  0  0  0  0  0
    0.9047    0.3968    1.8130 H   0  0  0  0  0  0  0  0  0  0  0  0
    2.4189    0.4288    0.8570 H   0  0  0  0  0  0  0  0  0  0  0  0
    1.1998    1.1521   -1.1756 H   0  0  0  0  0  0  0  0  0  0  0  0
   -0.7404    2.4610    0.0540 H   0  0  0  0  0  0  0  0  0  0  0  0
   -2.7934    0.8470    0.1548 H   0  0  0  0  0  0  0  0  0  0  0  0
    0.3773   -1.1533   -1.7340 H   0  0  0  0  0  0  0  0  0  0  0  0
  9 15  1  0
  1  2  2  0
  3 10  1  0
  2  9  1  0
  2  3  1  0
  4  9  1  0
  7  9  1  0
  4 12  1  0
  3  4  1  0
  3 11  1  0
  4  5  1  0
  7  8  2  0
  6  7  1  0
  5  6  2  0
  5 13  1  0
  6 14  1  0
M  END
$$$$

     RDKit          3D

 18 17  0  0  0  0  0  0  0  0999 V2000
   -1.4959    1.3653   -1.6313 C   0  0  0  0  0  0  0  0  0  0  0  0
   -0.9431    0.5387   -0.4713 C   0  0  0  0  0  0  0  0  0  0  0  0
    0.3088    1.1412   -0.0611 O   0  0  0  0  0  0  0  0  0  0  0  0
    1.3966    0.3465    0.0109 C   0  0  0  0  0  0  0  0  0  0  0  0
    2.1332    0.1180   -0.9567 O   0  0  0  0  0  0  0  0  0  0  0  0
    1.7310   -0.0815    1.4413 C   0  0  0  0  0  0  0  0  0  0  0  0
    0.5289   -0.4643    2.2204 N   0  0  0  0  0  0  0  0  0  0  0  0
   -0.8641   -0.8978   -0.8500 C   0  0  0  0  0  0  0  0  0  0  0  0
   -0.8886   -2.0589   -1.1496 C   0  0  0  0  0  0  0  0  0  0  0  0
   -2.4176    0.9415   -2.0299 H   0  0  0  0  0  0  0  0  0  0  0  0
   -1.6905    2.3882   -1.2783 H   0  0  0  0  0  0  0  0  0  0  0  0
   -0.7394    1.4249   -2.4492 H   0  0  0  0  0  0  0  0  0  0  0  0
   -1.6390    0.6272    0.3859 H   0  0  0  0  0  0  0  0  0  0  0  0
    2.4150   -0.9417    1.3914 H   0  0  0  0  0  0  0  0  0  0  0  0
    2.2550    0.7576    1.9248 H   0  0  0  0  0  0  0  0  0  0  0  0
    0.0593   -1.2457    1.7405 H   0  0  0  0  0  0  0  0  0  0  0  0
    0.8330   -0.8557    3.1153 H   0  0  0  0  0  0  0  0  0  0  0  0
   -0.9827   -3.1033   -1.3531 H   0  0  0  0  0  0  0  0  0  0  0  0
  9 18  1  0
  8  9  3  0
  2  8  1  0
  1 11  1  0
  1 10  1  0
  1  2  1  0
  1 12  1  0
  2  3  1  0
  2 13  1  0
  3  4  1  0
  6 14  1  0
  6 15  1  0
  4  6  1  0
  6  7  1  0
  4  5  2  0
  7 17  1  0
  7 16  1  0
M  END
$$$$

     RDKit          3D

 21 22  0  0  0  0  0  0  0  0999 V2000
    0.1339    0.2065   -2.1516 C   0  0  0  0  0  0  0  0  0  0  0  0
   -0.6360    0.3636   -0.8218 C   0  0  0  0  0  0  0  0  0  0  0  0
   -0.4400    1.7934   -0.3645 C   0  0  0  0  0  0  0  0  0  0  0  0
    0.9215    2.2876   -0.2869 O   0  0  0  0  0  0  0  0  0  0  0  0
   -0.1225   -1.1352   -0.2502 C   0  0  0  0  0  0  0  0  0  0  0  0
    0.9086   -1.0559    0.8264 C   0  0  0  0  0  0  0  0  0  0  0  0
   -0.1945   -0.5157    1.7119 C   0  0  0  0  0  0  0  0  0  0  0  0
   -0.7087   -1.3758    2.7291 O   0  0  0  0  0  0  0  0  0  0  0  0
   -1.0416   -0.3770    0.4788 C   0  0  0  0  0  0  0  0  0  0  0  0
   -0.5586    0.1330   -2.9869 H   0  0  0  0  0  0  0  0  0  0  0  0
    0.7969    1.0700   -2.3997 H   0  0  0  0  0  0  0  0  0  0  0  0
    0.8207   -0.6671   -2.0785 H   0  0  0  0  0  0  0  0  0  0  0  0
   -0.8608    2.1429    0.5765 H   0  0  0  0  0  0  0  0  0  0  0  0
   -0.8578    2.4388   -1.1723 H   0  0  0  0  0  0  0  0  0  0  0  0
    1.4026    1.4890   -0.4383 H   0  0  0  0  0  0  0  0  0  0  0  0
   -0.4840   -2.1213   -0.5709 H   0  0  0  0  0  0  0  0  0  0  0  0
    1.6782   -0.4213    0.4341 H   0  0  0  0  0  0  0  0  0  0  0  0
    1.3537   -2.0563    1.0382 H   0  0  0  0  0  0  0  0  0  0  0  0
    0.0154    0.4644    2.1483 H   0  0  0  0  0  0  0  0  0  0  0  0
   -0.0374   -2.0492    2.9546 H   0  0  0  0  0  0  0  0  0  0  0  0
   -2.0897   -0.6143    0.6236 H   0  0  0  0  0  0  0  0  0  0  0  0
  4 15  1  0
  3  4  1  0
  1 11  1  0
  5 16  1  0
  3 13  1  0
  2  3  1  0
  3 14  1  0
  2  5  1  0
  5  6  1  0
  5  9  1  0
  6 18  1  0
  1  2  1  0
  1 10  1  0
  1 12  1  0
  2  9  1  0
  6 17  1  0
  6  7  1  0
  9 21  1  0
  7  9  1  0
  7 19  1  0
  7  8  1  0
  8 20  1  0
M  END
$$$$

     RDKit          3D

 23 23  0  0  0  0  0  0  0  0999 V2000
   -0.1443    2.6296    0.3902 C   0  0  0  0  0  0  0  0  0  0  0  0
    1.1222    1.4821    0.4766 C   0  0  0  0  0  0  0  0  0  0  0  0
    0.6545    0.0454    0.4494 C   0  0  0  0  0  0  0  0  0  0  0  0
    1.6680   -0.9716   -0.0100 C   0  0  0  0  0  0  0  0  0  0  0  0
    0.8082   -2.0328   -0.8360 C   0  0  0  0  0  0  0  0  0  0  0  0
   -0.4333   -1.8138   -1.3254 C   0  0  0  0  0  0  0  0  0  0  0  0
   -1.6780   -1.0957   -0.6176 C   0  0  0  0  0  0  0  0  0  0  0  0
   -1.6006   -0.7030    1.0637 C   0  0  0  0  0  0  0  0  0  0  0  0
   -0.1754   -0.6999    1.4016 O   0  0  0  0  0  0  0  0  0  0  0  0
   -1.1264    2.0379    0.2185 H   0  0  0  0  0  0  0  0  0  0  0  0
   -0.1756    3.1549    1.2857 H   0  0  0  0  0  0  0  0  0  0  0  0
    0.0889    3.0113   -0.6397 H   0  0  0  0  0  0  0  0  0  0  0  0
    2.0257    1.7664    1.0516 H   0  0  0  0  0  0  0  0  0  0  0  0
    1.4138    1.7286   -0.5609 H   0  0  0  0  0  0  0  0  0  0  0  0
    0.1042    0.1996   -0.4069 H   0  0  0  0  0  0  0  0  0  0  0  0
    2.4633   -0.7437   -0.6576 H   0  0  0  0  0  0  0  0  0  0  0  0
    2.2440   -1.3380    0.8956 H   0  0  0  0  0  0  0  0  0  0  0  0
    1.3756   -2.7401   -1.4292 H   0  0  0  0  0  0  0  0  0  0  0  0
   -0.2593   -1.1591   -2.2530 H   0  0  0  0  0  0  0  0  0  0  0  0
   -1.9869   -0.0246   -0.7980 H   0  0  0  0  0  0  0  0  0  0  0  0
   -2.5818   -1.6780   -0.7310 H   0  0  0  0  0  0  0  0  0  0  0  0
   -1.8671   -1.3870    1.8347 H   0  0  0  0  0  0  0  0  0  0  0  0
   -1.9396    0.3314    1.1978 H   0  0  0  0  0  0  0  0  0  0  0  0
  5 18  1  0
  4 16  1  0
  2 13  1  0
  3 15  1  0
  1 11  1  0
  4  5  1  0
  5  6  2  0
  3  4  1  0
  4 17  1  0
  6 19  1  0
  2  3  1  0
  3  9  1  0
  1  2  1  0
  2 14  1  0
  6  7  1  0
  1 10  1  0
  1 12  1  0
  8 22  1  0
  8  9  1  0
  7  8  1  0
  8 23  1  0
  7 20  1  0
  7 21  1  0
M  END
$$$$

     RDKit          3D

 20 20  0  0  0  0  0  0  0  0999 V2000
   -0.3034    2.3949    0.8196 C   0  0  0  0  0  0  0  0  0  0  0  0
   -1.1336    1.4238    0.2133 O   0  0  0  0  0  0  0  0  0  0  0  0
   -0.9192    0.1064    0.6889 C   0  0  0  0  0  0  0  0  0  0  0  0
   -0.4492   -0.7519   -0.4590 C   0  0  0  0  0  0  0  0  0  0  0  0
    0.2585   -2.0306   -0.0278 C   0  0  0  0  0  0  0  0  0  0  0  0
    0.9153   -1.0587   -0.8631 N   0  0  0  0  0  0  0  0  0  0  0  0
    1.9120   -0.2742   -0.2260 C   0  0  0  0  0  0  0  0  0  0  0  0
   -1.3667   -0.7861   -1.6224 C   0  0  0  0  0  0  0  0  0  0  0  0
   -1.5204   -1.7855   -2.3199 O   0  0  0  0  0  0  0  0  0  0  0  0
   -0.3597    2.3477    1.9061 H   0  0  0  0  0  0  0  0  0  0  0  0
   -0.6942    3.3650    0.5900 H   0  0  0  0  0  0  0  0  0  0  0  0
    0.7020    2.3520    0.4381 H   0  0  0  0  0  0  0  0  0  0  0  0
   -1.8852   -0.3346    0.9821 H   0  0  0  0  0  0  0  0  0  0  0  0
   -0.2834    0.0910    1.5817 H   0  0  0  0  0  0  0  0  0  0  0  0
    0.5494   -2.1613    0.9585 H   0  0  0  0  0  0  0  0  0  0  0  0
   -0.0972   -2.9618   -0.4975 H   0  0  0  0  0  0  0  0  0  0  0  0
    2.9012   -0.6779   -0.4538 H   0  0  0  0  0  0  0  0  0  0  0  0
    1.8063   -0.1335    0.8681 H   0  0  0  0  0  0  0  0  0  0  0  0
    1.8389    0.7279   -0.7041 H   0  0  0  0  0  0  0  0  0  0  0  0
   -1.8715    0.1472   -1.8728 H   0  0  0  0  0  0  0  0  0  0  0  0
  8  9  2  0
  1 10  1  0
  1 12  1  0
  8 20  1  0
  4  8  1  0
  1 11  1  0
  1  2  1  0
  3 13  1  0
  3  4  1  0
  4  6  1  0
  4  5  1  0
  2  3  1  0
  3 14  1  0
  5  6  1  0
  6  7  1  0
  5 15  1  0
  5 16  1  0
  7 18  1  0
  7 19  1  0
  7 17  1  0
M  END
$$$$

     RDKit          3D

 17 17  0  0  0  0  0  0  0  0999 V2000
    0.5534    2.4239   -0.6258 C   0  0  0  0  0  0  0  0  0  0  0  0
    0.3685    0.9801   -0.5926 N   0  0  0  0  0  0  0  0  0  0  0  0
    0.2269    0.2699   -1.7608 C   0  0  0  0  0  0  0  0  0  0  0  0
   -0.0508   -0.9864   -1.8748 N   0  0  0  0  0  0  0  0  0  0  0  0
   -0.2053   -1.7237   -0.7199 C   0  0  0  0  0  0  0  0  0  0  0  0
   -0.3238   -2.9438   -0.7459 O   0  0  0  0  0  0  0  0  0  0  0  0
   -0.2453   -0.9880    0.5849 C   0  0  0  0  0  0  0  0  0  0  0  0
   -0.5930   -1.7476    1.8226 C   0  0  0  0  0  0  0  0  0  0  0  0
    0.0743    0.3137    0.5796 C   0  0  0  0  0  0  0  0  0  0  0  0
    1.3123    2.7294    0.1094 H   0  0  0  0  0  0  0  0  0  0  0  0
    0.8909    2.7738   -1.6159 H   0  0  0  0  0  0  0  0  0  0  0  0
   -0.3912    2.9415   -0.4111 H   0  0  0  0  0  0  0  0  0  0  0  0
    0.3632    0.8778   -2.6715 H   0  0  0  0  0  0  0  0  0  0  0  0
    0.1382   -1.5480    2.6233 H   0  0  0  0  0  0  0  0  0  0  0  0
   -1.5901   -1.4580    2.1639 H   0  0  0  0  0  0  0  0  0  0  0  0
   -0.6126   -2.8328    1.6493 H   0  0  0  0  0  0  0  0  0  0  0  0
    0.0843    0.9182    1.4852 H   0  0  0  0  0  0  0  0  0  0  0  0
  3 13  1  0
  3  4  2  0
  4  5  1  0
  2  3  1  0
  1 11  1  0
  5  6  2  0
  5  7  1  0
  1  2  1  0
  2  9  1  0
  1 10  1  0
  1 12  1  0
  7  9  2  0
  9 17  1  0
  7  8  1  0
  8 14  1  0
  8 16  1  0
  8 15  1  0
M  END
$$$$

     RDKit          3D

 20 21  0  0  0  0  0  0  0  0999 V2000
    0.3472    2.1569   -0.7759 C   0  0  0  0  0  0  0  0  0  0  0  0
    0.7196    0.7287   -0.3744 C   0  0  0  0  0  0  0  0  0  0  0  0
    1.2625   -0.1059   -1.3419 C   0  0  0  0  0  0  0  0  0  0  0  0
    0.1360   -1.2567   -1.5322 C   0  0  0  0  0  0  0  0  0  0  0  0
   -0.5899   -1.3071   -0.1771 C   0  0  0  0  0  0  0  0  0  0  0  0
    0.3338   -1.3798    0.9932 C   0  0  0  0  0  0  0  0  0  0  0  0
   -0.2546   -0.0566    0.5814 C   0  0  0  0  0  0  0  0  0  0  0  0
   -1.0474    0.5581    1.6949 C   0  0  0  0  0  0  0  0  0  0  0  0
    0.5076    2.3844   -1.9040 H   0  0  0  0  0  0  0  0  0  0  0  0
   -0.7047    2.3958   -0.6439 H   0  0  0  0  0  0  0  0  0  0  0  0
    1.0279    2.8419   -0.2807 H   0  0  0  0  0  0  0  0  0  0  0  0
    2.1530   -0.7344   -0.9594 H   0  0  0  0  0  0  0  0  0  0  0  0
    0.3999   -2.2707   -1.8971 H   0  0  0  0  0  0  0  0  0  0  0  0
   -0.5218   -1.0144   -2.3670 H   0  0  0  0  0  0  0  0  0  0  0  0
   -1.5248   -1.8976   -0.0207 H   0  0  0  0  0  0  0  0  0  0  0  0
    0.0055   -1.7739    2.0390 H   0  0  0  0  0  0  0  0  0  0  0  0
    1.4181   -1.5249    0.9088 H   0  0  0  0  0  0  0  0  0  0  0  0
   -1.6415   -0.2111    2.2265 H   0  0  0  0  0  0  0  0  0  0  0  0
   -0.3583    1.0312    2.4616 H   0  0  0  0  0  0  0  0  0  0  0  0
   -1.6682    1.4360    1.3691 H   0  0  0  0  0  0  0  0  0  0  0  0
  3 12  1  0
  4 14  1  0
  4 13  1  0
  3  4  1  0
  2  3  2  0
  1 10  1  0
  4  5  1  0
  1  2  1  0
  2  7  1  0
  1 11  1  0
  1  9  1  0
  5  7  1  0
  5 15  1  0
  5  6  1  0
  6 17  1  0
  6  7  1  0
  7  8  1  0
  6 16  1  0
  8 19  1  0
  8 18  1  0
  8 20  1  0
M  END
$$$$

     RDKit          3D

 17 18  0  0  0  0  0  0  0  0999 V2000
    1.5173    1.6012   -0.8464 O   0  0  0  0  0  0  0  0  0  0  0  0
    1.7297    0.7025    0.1446 C   0  0  0  0  0  0  0  0  0  0  0  0
    2.8601    0.2554    0.3299 O   0  0  0  0  0  0  0  0  0  0  0  0
    0.4707    0.2936    0.9173 C   0  0  0  0  0  0  0  0  0  0  0  0
   -0.7083    1.1467    0.5905 N   0  0  0  0  0  0  0  0  0  0  0  0
   -0.3791    2.0529    0.2522 H   0  0  0  0  0  0  0  0  0  0  0  0
    2.3264    1.4890   -1.4191 H   0  0  0  0  0  0  0  0  0  0  0  0
   -1.4705    0.4543   -0.4776 C   0  0  0  0  0  0  0  0  0  0  0  0
   -1.2089   -1.0059   -0.2359 C   0  0  0  0  0  0  0  0  0  0  0  0
   -0.0221   -1.6660   -0.7475 N   0  0  0  0  0  0  0  0  0  0  0  0
    0.0152   -1.1058    0.5928 C   0  0  0  0  0  0  0  0  0  0  0  0
    0.6812    0.4105    1.9880 H   0  0  0  0  0  0  0  0  0  0  0  0
   -1.1221    0.7519   -1.4578 H   0  0  0  0  0  0  0  0  0  0  0  0
   -2.5325    0.6952   -0.3682 H   0  0  0  0  0  0  0  0  0  0  0  0
   -2.0707   -1.6051    0.0183 H   0  0  0  0  0  0  0  0  0  0  0  0
   -0.1329   -2.6808   -0.7035 H   0  0  0  0  0  0  0  0  0  0  0  0
    0.0462   -1.7897    1.4221 H   0  0  0  0  0  0  0  0  0  0  0  0
  5  6  1  0
  4 12  1  0
  4  5  1  0
  5  8  1  0
  2  3  2  0
  8 13  1  0
  2  4  1  0
  4 11  1  0
  1  2  1  0
  1  7  1  0
  8 14  1  0
  8  9  1  0
 11 17  1  0
  9 11  1  0
 10 11  1  0
  9 15  1  0
  9 10  1  0
 10 16  1  0
M  END
$$$$

     RDKit          3D

 17 18  0  0  0  0  0  0  0  0999 V2000
    0.0673    3.3147    0.7785 C   0  0  0  0  0  0  0  0  0  0  0  0
    0.4909    1.9796    0.3105 C   0  0  0  0  0  0  0  0  0  0  0  0
    0.7644    0.9238   -0.1755 C   0  0  0  0  0  0  0  0  0  0  0  0
    0.8689   -0.3731   -0.7759 C   0  0  0  0  0  0  0  0  0  0  0  0
   -0.2488   -0.5303   -1.6791 O   0  0  0  0  0  0  0  0  0  0  0  0
   -0.9487   -1.4822   -0.8017 C   0  0  0  0  0  0  0  0  0  0  0  0
   -0.9517   -1.4541    0.6889 C   0  0  0  0  0  0  0  0  0  0  0  0
    0.3236   -1.5351   -0.0268 C   0  0  0  0  0  0  0  0  0  0  0  0
    1.0517   -2.7519   -0.0275 O   0  0  0  0  0  0  0  0  0  0  0  0
   -0.1363    3.9925   -0.0732 H   0  0  0  0  0  0  0  0  0  0  0  0
   -0.8484    3.2213    1.3941 H   0  0  0  0  0  0  0  0  0  0  0  0
    0.8268    3.7733    1.4115 H   0  0  0  0  0  0  0  0  0  0  0  0
    1.8129   -0.6482   -1.2917 H   0  0  0  0  0  0  0  0  0  0  0  0
   -1.3432   -2.4071   -1.2464 H   0  0  0  0  0  0  0  0  0  0  0  0
   -1.1805   -0.5065    1.2052 H   0  0  0  0  0  0  0  0  0  0  0  0
   -1.5024   -2.3014    1.1755 H   0  0  0  0  0  0  0  0  0  0  0  0
    0.9536   -3.2154   -0.8666 H   0  0  0  0  0  0  0  0  0  0  0  0
  9 17  1  0
  8  9  1  0
  1 10  1  0
  4 13  1  0
  1 11  1  0
  4  8  1  0
  7  8  1  0
  6  8  1  0
  1  2  1  0
  1 12  1  0
  2  3  3  0
  3  4  1  0
  4  5  1  0
  7 15  1  0
  6  7  1  0
  7 16  1  0
  5  6  1  0
  6 14  1  0
M  END
$$$$

     RDKit          3D

 25 25  0  0  0  0  0  0  0  0999 V2000
   -0.3837    1.5702    1.7167 C   0  0  0  0  0  0  0  0  0  0  0  0
    0.3429    0.5289    0.9711 C   0  0  0  0  0  0  0  0  0  0  0  0
    1.4299    1.2934   -0.3493 C   0  0  0  0  0  0  0  0  0  0  0  0
    1.0101    1.2786   -1.7108 O   0  0  0  0  0  0  0  0  0  0  0  0
   -0.1554   -0.8877    0.7792 C   0  0  0  0  0  0  0  0  0  0  0  0
   -0.0877   -1.8394   -0.3787 C   0  0  0  0  0  0  0  0  0  0  0  0
    1.3092   -1.7469   -1.1361 C   0  0  0  0  0  0  0  0  0  0  0  0
   -1.3918   -0.9409   -0.0884 C   0  0  0  0  0  0  0  0  0  0  0  0
   -1.8103    0.2670   -0.7782 C   0  0  0  0  0  0  0  0  0  0  0  0
   -1.3111    2.0156    1.3519 H   0  0  0  0  0  0  0  0  0  0  0  0
   -0.8680    1.0307    2.6137 H   0  0  0  0  0  0  0  0  0  0  0  0
    0.4226    2.1721    2.1513 H   0  0  0  0  0  0  0  0  0  0  0  0
    1.2759    0.1470    1.5676 H   0  0  0  0  0  0  0  0  0  0  0  0
    2.1905    0.5123   -0.3177 H   0  0  0  0  0  0  0  0  0  0  0  0
    1.9184    2.2468    0.1197 H   0  0  0  0  0  0  0  0  0  0  0  0
    0.4322    1.9601   -2.1070 H   0  0  0  0  0  0  0  0  0  0  0  0
   -0.0128   -1.6217    1.6066 H   0  0  0  0  0  0  0  0  0  0  0  0
   -0.3413   -2.9233   -0.1102 H   0  0  0  0  0  0  0  0  0  0  0  0
    0.8584   -1.1843   -1.9261 H   0  0  0  0  0  0  0  0  0  0  0  0
    1.7563   -1.6981   -0.1350 H   0  0  0  0  0  0  0  0  0  0  0  0
    1.4757   -2.7858   -1.4944 H   0  0  0  0  0  0  0  0  0  0  0  0
   -2.1185   -1.0205    0.7885 H   0  0  0  0  0  0  0  0  0  0  0  0
   -1.1573    0.5296   -1.6075 H   0  0  0  0  0  0  0  0  0  0  0  0
   -2.7030   -0.0033   -1.3775 H   0  0  0  0  0  0  0  0  0  0  0  0
   -2.0811    1.1000   -0.1492 H   0  0  0  0  0  0  0  0  0  0  0  0
  7 21  1  0
  7 20  1  0
  7 19  1  0
  6  7  1  0
  1 11  1  0
  6 18  1  0
  5  6  1  0
  6  8  1  0
  1 10  1  0
  1 12  1  0
  1  2  1  0
  2 13  1  0
  9 23  1  0
  9 25  1  0
  5  8  1  0
  2  5  1  0
  5 17  1  0
  8  9  1  0
  8 22  1  0
  2  3  1  0
  9 24  1  0
  3  4  1  0
  3 15  1  0
  3 14  1  0
  4 16  1  0
M  END
$$$$

     RDKit          3D

 14 13  0  0  0  0  0  0  0  0999 V2000
    2.0193   -0.3482    0.7767 O   0  0  0  0  0  0  0  0  0  0  0  0
    1.0559   -0.7144    1.7477 C   0  0  0  0  0  0  0  0  0  0  0  0
   -0.3631   -0.8551    1.1649 C   0  0  0  0  0  0  0  0  0  0  0  0
   -0.6491    0.0583    0.0519 C   0  0  0  0  0  0  0  0  0  0  0  0
   -0.8259    0.6262   -0.9910 C   0  0  0  0  0  0  0  0  0  0  0  0
   -0.9699    1.1417   -2.3665 C   0  0  0  0  0  0  0  0  0  0  0  0
   -2.2489    1.5190   -2.6183 F   0  0  0  0  0  0  0  0  0  0  0  0
   -0.6329    0.1690   -3.2567 F   0  0  0  0  0  0  0  0  0  0  0  0
   -0.1480    2.1981   -2.5608 F   0  0  0  0  0  0  0  0  0  0  0  0
    1.8594    0.5873    0.5602 H   0  0  0  0  0  0  0  0  0  0  0  0
    1.3573   -1.7148    2.1316 H   0  0  0  0  0  0  0  0  0  0  0  0
    1.0825   -0.0244    2.6003 H   0  0  0  0  0  0  0  0  0  0  0  0
   -1.0752   -0.7659    1.9792 H   0  0  0  0  0  0  0  0  0  0  0  0
   -0.4613   -1.8767    0.7807 H   0  0  0  0  0  0  0  0  0  0  0  0
  6  8  1  0
  2 11  1  0
  3 14  1  0
  5  6  1  0
  6  7  1  0
  6  9  1  0
  4  5  3  0
  1  2  1  0
  2  3  1  0
  2 12  1  0
  3  4  1  0
  1 10  1  0
  3 13  1  0
M  END
$$$$

     RDKit          3D

 16 17  0  0  0  0  0  0  0  0999 V2000
   -1.1550    1.5050    0.8764 C   0  0  0  0  0  0  0  0  0  0  0  0
   -0.9730    0.1399    0.2419 C   0  0  0  0  0  0  0  0  0  0  0  0
    0.0044   -0.7276    1.0153 C   0  0  0  0  0  0  0  0  0  0  0  0
   -0.0721   -1.0540    2.1881 O   0  0  0  0  0  0  0  0  0  0  0  0
    1.0871   -1.1972    0.1176 C   0  0  0  0  0  0  0  0  0  0  0  0
    1.9549   -0.1858   -0.4848 N   0  0  0  0  0  0  0  0  0  0  0  0
    0.8029   -0.6327   -1.2655 C   0  0  0  0  0  0  0  0  0  0  0  0
   -0.4145    0.2187   -1.1649 C   0  0  0  0  0  0  0  0  0  0  0  0
   -0.8656    0.8362   -2.1128 O   0  0  0  0  0  0  0  0  0  0  0  0
   -2.0937    1.5212    1.4324 H   0  0  0  0  0  0  0  0  0  0  0  0
   -0.3620    1.7527    1.5905 H   0  0  0  0  0  0  0  0  0  0  0  0
   -1.2049    2.3168    0.1379 H   0  0  0  0  0  0  0  0  0  0  0  0
   -1.9265   -0.4041    0.1752 H   0  0  0  0  0  0  0  0  0  0  0  0
    1.4713   -2.2020    0.2301 H   0  0  0  0  0  0  0  0  0  0  0  0
    2.8105   -0.6014   -0.8580 H   0  0  0  0  0  0  0  0  0  0  0  0
    0.9360   -1.2859   -2.1196 H   0  0  0  0  0  0  0  0  0  0  0  0
  3  4  2  0
  5 14  1  0
  3  5  1  0
  2  3  1  0
  1 11  1  0
  5  6  1  0
  5  7  1  0
  2 13  1  0
  1  2  1  0
  2  8  1  0
  1 10  1  0
  1 12  1  0
  6 15  1  0
  6  7  1  0
  7  8  1  0
  7 16  1  0
  8  9  2  0
M  END
$$$$

     RDKit          3D

 13 13  0  0  0  0  0  0  0  0999 V2000
   -2.1282   -2.2370   -0.6580 O   0  0  0  0  0  0  0  0  0  0  0  0
   -1.7595   -1.1752   -0.1450 C   0  0  0  0  0  0  0  0  0  0  0  0
   -0.3825   -0.5105   -0.3084 C   0  0  0  0  0  0  0  0  0  0  0  0
   -0.1671    0.9487    0.1539 C   0  0  0  0  0  0  0  0  0  0  0  0
    0.2714    0.4440    1.4658 O   0  0  0  0  0  0  0  0  0  0  0  0
    0.4679   -0.8062    0.9490 C   0  0  0  0  0  0  0  0  0  0  0  0
    1.0906   -1.7371    1.4297 O   0  0  0  0  0  0  0  0  0  0  0  0
    0.9334    1.6232   -0.4729 C   0  0  0  0  0  0  0  0  0  0  0  0
    2.0423    1.8398   -0.8877 C   0  0  0  0  0  0  0  0  0  0  0  0
   -2.4789   -0.6402    0.5158 H   0  0  0  0  0  0  0  0  0  0  0  0
    0.1114   -0.7719   -1.2777 H   0  0  0  0  0  0  0  0  0  0  0  0
   -1.0696    1.5417    0.2305 H   0  0  0  0  0  0  0  0  0  0  0  0
    3.0688    1.4808   -0.9948 H   0  0  0  0  0  0  0  0  0  0  0  0
  9 13  1  0
  8  9  3  0
  4 12  1  0
  4  8  1  0
  4  5  1  0
  3  4  1  0
  1  2  2  0
  5  6  1  0
  2  3  1  0
  2 10  1  0
  3 11  1  0
  3  6  1  0
  6  7  2  0
M  END
$$$$

     RDKit          3D

 25 25  0  0  0  0  0  0  0  0999 V2000
   -0.5032    3.0909    0.1678 C   0  0  0  0  0  0  0  0  0  0  0  0
   -1.4534    1.9651   -0.4052 C   0  0  0  0  0  0  0  0  0  0  0  0
   -0.7516    1.0958   -1.4510 C   0  0  0  0  0  0  0  0  0  0  0  0
    0.6144    0.6195   -0.4879 C   0  0  0  0  0  0  0  0  0  0  0  0
    0.3846   -0.9023   -0.1842 C   0  0  0  0  0  0  0  0  0  0  0  0
    0.8886   -1.1218    1.3366 C   0  0  0  0  0  0  0  0  0  0  0  0
    0.0201   -2.3480    1.3453 C   0  0  0  0  0  0  0  0  0  0  0  0
    0.3004   -3.0553   -0.2424 C   0  0  0  0  0  0  0  0  0  0  0  0
    1.2670   -1.8660   -0.7670 O   0  0  0  0  0  0  0  0  0  0  0  0
   -0.5183    4.0423   -0.4582 H   0  0  0  0  0  0  0  0  0  0  0  0
    0.5473    2.8594    0.0159 H   0  0  0  0  0  0  0  0  0  0  0  0
   -0.7614    3.3618    1.1914 H   0  0  0  0  0  0  0  0  0  0  0  0
   -2.2222    2.5306   -1.0172 H   0  0  0  0  0  0  0  0  0  0  0  0
   -2.0028    1.3689    0.3031 H   0  0  0  0  0  0  0  0  0  0  0  0
    0.0503    0.0178   -2.0621 H   0  0  0  0  0  0  0  0  0  0  0  0
   -0.3439    1.8272   -2.1721 H   0  0  0  0  0  0  0  0  0  0  0  0
    0.8640    1.1122    0.6176 H   0  0  0  0  0  0  0  0  0  0  0  0
    1.5010    1.1834   -1.6858 H   0  0  0  0  0  0  0  0  0  0  0  0
   -0.6085   -1.1531   -0.6379 H   0  0  0  0  0  0  0  0  0  0  0  0
    1.9508   -1.3001    1.3656 H   0  0  0  0  0  0  0  0  0  0  0  0
    0.9315   -0.4286    2.1898 H   0  0  0  0  0  0  0  0  0  0  0  0
    0.6549   -3.0961    2.0772 H   0  0  0  0  0  0  0  0  0  0  0  0
   -0.9909   -2.7030    1.9230 H   0  0  0  0  0  0  0  0  0  0  0  0
   -0.6148   -3.0246   -0.9162 H   0  0  0  0  0  0  0  0  0  0  0  0
    0.7964   -4.0761   -0.0459 H   0  0  0  0  0  0  0  0  0  0  0  0
  2 14  1  0
  1 11  1  0
  1 10  1  0
  1  2  1  0
  1 12  1  0
  2 13  1  0
  2  3  1  0
  4 18  1  0
  3 15  1  0
  3  4  1  0
  3 16  1  0
  4 17  1  0
  4  5  1  0
  6 21  1  0
  8 25  1  0
  5  9  1  0
  8  9  1  0
  5  6  1  0
  5 19  1  0
  6 20  1  0
  6  7  1  0
  7  8  1  0
  8 24  1  0
  7 23  1  0
  7 22  1  0
M  END
$$$$

     RDKit          3D

 20 20  0  0  0  0  0  0  0  0999 V2000
   -0.7750    2.9947    0.5884 C   0  0  0  0  0  0  0  0  0  0  0  0
   -0.1634    1.6324    0.9555 C   0  0  0  0  0  0  0  0  0  0  0  0
    0.6996    0.8866   -0.0863 C   0  0  0  0  0  0  0  0  0  0  0  0
    0.0256    0.3106   -1.2334 N   0  0  0  0  0  0  0  0  0  0  0  0
    0.3996   -0.6209   -0.1370 C   0  0  0  0  0  0  0  0  0  0  0  0
    1.2793   -1.7152   -0.5060 C   0  0  0  0  0  0  0  0  0  0  0  0
    0.4603   -2.7092   -1.1439 O   0  0  0  0  0  0  0  0  0  0  0  0
   -0.6482   -3.2735   -0.5072 C   0  0  0  0  0  0  0  0  0  0  0  0
   -1.0779   -3.0244    0.5934 O   0  0  0  0  0  0  0  0  0  0  0  0
   -1.4212    3.3168    1.4095 H   0  0  0  0  0  0  0  0  0  0  0  0
    0.1550    3.6267    0.2803 H   0  0  0  0  0  0  0  0  0  0  0  0
   -1.3559    2.8544   -0.3810 H   0  0  0  0  0  0  0  0  0  0  0  0
    0.3835    1.6800    1.9233 H   0  0  0  0  0  0  0  0  0  0  0  0
   -1.0484    0.8932    1.2071 H   0  0  0  0  0  0  0  0  0  0  0  0
    1.6794    1.3432   -0.2871 H   0  0  0  0  0  0  0  0  0  0  0  0
   -0.9747    0.1936   -1.4009 H   0  0  0  0  0  0  0  0  0  0  0  0
   -0.2054   -1.0125    0.6797 H   0  0  0  0  0  0  0  0  0  0  0  0
    2.0365   -1.4485   -1.2086 H   0  0  0  0  0  0  0  0  0  0  0  0
    1.8136   -1.9813    0.4955 H   0  0  0  0  0  0  0  0  0  0  0  0
   -1.2620   -3.9470   -1.2411 H   0  0  0  0  0  0  0  0  0  0  0  0
  5 17  1  0
  3 15  1  0
  4 16  1  0
  3  5  1  0
  4  5  1  0
  5  6  1  0
  3  4  1  0
  2  3  1  0
  6 19  1  0
  6  7  1  0
  7  8  1  0
  1 11  1  0
  6 18  1  0
  2 14  1  0
  8  9  2  0
  1  2  1  0
  2 13  1  0
  8 20  1  0
  1 10  1  0
  1 12  1  0
M  END
$$$$

     RDKit          3D

 17 17  0  0  0  0  0  0  0  0999 V2000
    2.2039    1.7473    0.6638 O   0  0  0  0  0  0  0  0  0  0  0  0
    1.3735    1.1628   -0.3267 C   0  0  0  0  0  0  0  0  0  0  0  0
    0.3473    0.2376    0.2753 C   0  0  0  0  0  0  0  0  0  0  0  0
   -1.0549    0.4253   -0.2252 C   0  0  0  0  0  0  0  0  0  0  0  0
   -2.0069   -0.4741    0.3490 O   0  0  0  0  0  0  0  0  0  0  0  0
   -2.3250   -1.5571   -0.3990 C   0  0  0  0  0  0  0  0  0  0  0  0
   -3.3769   -2.1606   -0.3032 O   0  0  0  0  0  0  0  0  0  0  0  0
    0.8193   -1.1047    0.8105 C   0  0  0  0  0  0  0  0  0  0  0  0
    0.4594   -0.0161    1.6830 O   0  0  0  0  0  0  0  0  0  0  0  0
    2.6302    2.5187    0.2585 H   0  0  0  0  0  0  0  0  0  0  0  0
    0.8939    1.9631   -0.8997 H   0  0  0  0  0  0  0  0  0  0  0  0
    2.0089    0.6083   -1.0098 H   0  0  0  0  0  0  0  0  0  0  0  0
   -1.0812    0.3651   -1.3291 H   0  0  0  0  0  0  0  0  0  0  0  0
   -1.3966    1.4342    0.0203 H   0  0  0  0  0  0  0  0  0  0  0  0
   -1.5346   -1.8141   -1.1121 H   0  0  0  0  0  0  0  0  0  0  0  0
    1.8704   -1.3613    0.7391 H   0  0  0  0  0  0  0  0  0  0  0  0
    0.1692   -1.9744    0.8052 H   0  0  0  0  0  0  0  0  0  0  0  0
  4 13  1  0
  4  5  1  0
  5  6  1  0
  4 14  1  0
  3  4  1  0
  2 11  1  0
  6  7  2  0
  6 15  1  0
  1 10  1  0
  2  3  1  0
  3  8  1  0
  3  9  1  0
  1  2  1  0
  2 12  1  0
  8 16  1  0
  8 17  1  0
  8  9  1  0
M  END
$$$$

     RDKit          3D

 16 16  0  0  0  0  0  0  0  0999 V2000
    1.6852    2.4441    1.3301 N   0  0  0  0  0  0  0  0  0  0  0  0
    0.5792    2.7882    0.4091 C   0  0  0  0  0  0  0  0  0  0  0  0
   -0.5871    1.9603    0.4092 O   0  0  0  0  0  0  0  0  0  0  0  0
   -0.3309    0.5624    0.5141 C   0  0  0  0  0  0  0  0  0  0  0  0
   -1.3103   -0.4085   -0.1151 C   0  0  0  0  0  0  0  0  0  0  0  0
   -2.5123   -0.3639    0.0448 O   0  0  0  0  0  0  0  0  0  0  0  0
   -0.6071   -1.3127   -1.0769 C   0  0  0  0  0  0  0  0  0  0  0  0
    0.2011   -2.4654   -0.5477 C   0  0  0  0  0  0  0  0  0  0  0  0
   -1.0204   -2.6982   -1.2807 O   0  0  0  0  0  0  0  0  0  0  0  0
    2.0541    1.5099    1.0296 H   0  0  0  0  0  0  0  0  0  0  0  0
    0.3960    3.8494    0.2753 H   0  0  0  0  0  0  0  0  0  0  0  0
    0.6246    0.4114    0.0055 H   0  0  0  0  0  0  0  0  0  0  0  0
   -0.1614    0.2986    1.5600 H   0  0  0  0  0  0  0  0  0  0  0  0
   -0.2133   -0.8735   -2.0055 H   0  0  0  0  0  0  0  0  0  0  0  0
    1.1049   -2.8005   -1.0095 H   0  0  0  0  0  0  0  0  0  0  0  0
    0.0976   -2.9017    0.4577 H   0  0  0  0  0  0  0  0  0  0  0  0
  4 13  1  0
  4 12  1  0
  4  5  1  0
  3  4  1  0
  5  6  2  0
  5  7  1  0
  2  3  1  0
  2 11  1  0
  1  2  1  0
  7 14  1  0
  7  9  1  0
  7  8  1  0
  8  9  1  0
  1 10  1  0
  8 16  1  0
  8 15  1  0
M  END
$$$$

     RDKit          3D

 21 22  0  0  0  0  0  0  0  0999 V2000
    0.7128    2.6268   -0.9545 O   0  0  0  0  0  0  0  0  0  0  0  0
   -0.4559    1.7867   -1.1726 C   0  0  0  0  0  0  0  0  0  0  0  0
    0.0097    0.2750   -1.3559 C   0  0  0  0  0  0  0  0  0  0  0  0
   -0.3664    0.1426    0.1208 C   0  0  0  0  0  0  0  0  0  0  0  0
   -1.2186    1.3506    0.1196 C   0  0  0  0  0  0  0  0  0  0  0  0
   -0.8675   -1.3387    0.5501 C   0  0  0  0  0  0  0  0  0  0  0  0
    0.4313   -2.0349    0.9338 C   0  0  0  0  0  0  0  0  0  0  0  0
    1.5365   -1.0509    0.9423 C   0  0  0  0  0  0  0  0  0  0  0  0
    0.8426    0.2451    1.0353 O   0  0  0  0  0  0  0  0  0  0  0  0
    0.4641    3.5220   -1.3267 H   0  0  0  0  0  0  0  0  0  0  0  0
   -1.1178    2.2351   -1.9787 H   0  0  0  0  0  0  0  0  0  0  0  0
   -0.5311   -0.3458   -2.1401 H   0  0  0  0  0  0  0  0  0  0  0  0
    1.0929    0.2093   -1.5258 H   0  0  0  0  0  0  0  0  0  0  0  0
   -0.9272    1.9022    1.1323 H   0  0  0  0  0  0  0  0  0  0  0  0
   -2.3311    1.2693    0.0669 H   0  0  0  0  0  0  0  0  0  0  0  0
   -1.4640   -1.2820    1.4466 H   0  0  0  0  0  0  0  0  0  0  0  0
   -1.4370   -1.7294   -0.2624 H   0  0  0  0  0  0  0  0  0  0  0  0
    0.3801   -2.3808    2.0955 H   0  0  0  0  0  0  0  0  0  0  0  0
    0.6435   -2.9516    0.3507 H   0  0  0  0  0  0  0  0  0  0  0  0
    2.3464   -1.0867    0.2037 H   0  0  0  0  0  0  0  0  0  0  0  0
    2.2566   -1.3638    1.7191 H   0  0  0  0  0  0  0  0  0  0  0  0
  1 10  1  0
  1  2  1  0
  5 15  1  0
  2 11  1  0
  5 14  1  0
  2  5  1  0
  2  3  1  0
  4  5  1  0
  6 16  1  0
  3  4  1  0
  3 13  1  0
  3 12  1  0
  4  6  1  0
  4  9  1  0
  6 17  1  0
  6  7  1  0
  8  9  1  0
  8 20  1  0
  7  8  1  0
  8 21  1  0
  7 18  1  0
  7 19  1  0
M  END
$$$$

     RDKit          3D

 17 16  0  0  0  0  0  0  0  0999 V2000
    2.1727    1.2238    1.6066 O   0  0  0  0  0  0  0  0  0  0  0  0
    1.1628    0.2757    1.8830 C   0  0  0  0  0  0  0  0  0  0  0  0
   -0.1624    0.6407    1.1504 C   0  0  0  0  0  0  0  0  0  0  0  0
   -0.0593   -0.0730   -0.3145 C   0  0  0  0  0  0  0  0  0  0  0  0
    0.3530   -1.4432   -0.0213 O   0  0  0  0  0  0  0  0  0  0  0  0
   -1.3818   -0.0515   -1.0655 C   0  0  0  0  0  0  0  0  0  0  0  0
   -2.5386   -0.0016   -0.6206 O   0  0  0  0  0  0  0  0  0  0  0  0
   -1.3120   -0.2938   -2.4544 C   0  0  0  0  0  0  0  0  0  0  0  0
   -1.3482   -0.5249   -3.6132 C   0  0  0  0  0  0  0  0  0  0  0  0
    2.8701    0.9637    2.2257 H   0  0  0  0  0  0  0  0  0  0  0  0
    1.5440   -0.6050    1.5146 H   0  0  0  0  0  0  0  0  0  0  0  0
    0.9849    0.3747    3.0645 H   0  0  0  0  0  0  0  0  0  0  0  0
   -1.0377    0.2338    1.8108 H   0  0  0  0  0  0  0  0  0  0  0  0
   -0.2506    1.7427    0.9987 H   0  0  0  0  0  0  0  0  0  0  0  0
    0.7101    0.3184   -0.9056 H   0  0  0  0  0  0  0  0  0  0  0  0
   -0.1193   -2.0054   -0.6463 H   0  0  0  0  0  0  0  0  0  0  0  0
   -1.5876   -0.7752   -4.6129 H   0  0  0  0  0  0  0  0  0  0  0  0
  9 17  1  0
  8  9  3  0
  6  8  1  0
  3 14  1  0
  2 11  1  0
  4 15  1  0
  1 10  1  0
  1  2  1  0
  2  3  1  0
  3  4  1  0
  3 13  1  0
  4  6  1  0
  6  7  2  0
  2 12  1  0
  4  5  1  0
  5 16  1  0
M  END
$$$$

     RDKit          3D

 22 22  0  0  0  0  0  0  0  0999 V2000
    0.3908   -1.7000   -1.8627 C   0  0  0  0  0  0  0  0  0  0  0  0
    1.6702   -1.2688   -0.6921 C   0  0  0  0  0  0  0  0  0  0  0  0
    2.2209    0.2106   -0.8277 C   0  0  0  0  0  0  0  0  0  0  0  0
    1.3151   -0.0877    0.3854 C   0  0  0  0  0  0  0  0  0  0  0  0
   -0.0627    0.4547    0.1326 C   0  0  0  0  0  0  0  0  0  0  0  0
   -0.8385    0.8731    1.3921 C   0  0  0  0  0  0  0  0  0  0  0  0
   -1.5950    2.1207    1.3345 C   0  0  0  0  0  0  0  0  0  0  0  0
   -1.2261    0.0193    2.2751 N   0  0  0  0  0  0  0  0  0  0  0  0
   -1.8947   -1.0534    1.5421 O   0  0  0  0  0  0  0  0  0  0  0  0
    0.8770   -1.9097   -2.7907 H   0  0  0  0  0  0  0  0  0  0  0  0
   -0.0577   -2.6638   -1.7668 H   0  0  0  0  0  0  0  0  0  0  0  0
   -0.4150   -0.9068   -2.0088 H   0  0  0  0  0  0  0  0  0  0  0  0
    2.2459   -2.0612   -0.2318 H   0  0  0  0  0  0  0  0  0  0  0  0
    1.7133    0.3818   -1.8836 H   0  0  0  0  0  0  0  0  0  0  0  0
    2.1325    1.3033   -1.0183 H   0  0  0  0  0  0  0  0  0  0  0  0
    1.5408   -0.4481    1.4275 H   0  0  0  0  0  0  0  0  0  0  0  0
   -0.6601   -0.3094   -0.2901 H   0  0  0  0  0  0  0  0  0  0  0  0
   -0.0335    1.3163   -0.6496 H   0  0  0  0  0  0  0  0  0  0  0  0
   -1.0950    2.8039    0.5372 H   0  0  0  0  0  0  0  0  0  0  0  0
   -2.5505    1.7315    0.8597 H   0  0  0  0  0  0  0  0  0  0  0  0
   -1.7975    2.9960    2.0371 H   0  0  0  0  0  0  0  0  0  0  0  0
   -1.8801   -1.8023    2.0989 H   0  0  0  0  0  0  0  0  0  0  0  0
  1 11  1  0
  2 13  1  0
  3 14  1  0
  1  2  1  0
  1 12  1  0
  1 10  1  0
  2  3  1  0
  2  4  1  0
  3 15  1  0
  3  4  1  0
  4 16  1  0
  4  5  1  0
  5 17  1  0
  5 18  1  0
  5  6  1  0
  6  8  2  3
  6  7  1  0
  8  9  1  0
  7 19  1  0
  7 21  1  0
  7 20  1  0
  9 22  1  0
M  END
$$$$

     RDKit          3D

 15 16  0  0  0  0  0  0  0  0999 V2000
    0.8447    1.0235   -2.1537 O   0  0  0  0  0  0  0  0  0  0  0  0
    0.0710    0.5026   -1.0795 C   0  0  0  0  0  0  0  0  0  0  0  0
    0.4111   -0.9141   -0.4216 C   0  0  0  0  0  0  0  0  0  0  0  0
   -0.5496   -1.1691    0.7042 C   0  0  0  0  0  0  0  0  0  0  0  0
   -0.4437    0.1829    1.4041 C   0  0  0  0  0  0  0  0  0  0  0  0
    0.5080    0.8633    0.4023 C   0  0  0  0  0  0  0  0  0  0  0  0
    1.5537   -0.1983    0.2099 O   0  0  0  0  0  0  0  0  0  0  0  0
    0.2658    1.5711   -2.7011 H   0  0  0  0  0  0  0  0  0  0  0  0
   -1.0173    0.4846   -1.3756 H   0  0  0  0  0  0  0  0  0  0  0  0
    0.7030   -1.7046   -1.1522 H   0  0  0  0  0  0  0  0  0  0  0  0
   -1.6200   -1.3450    0.4017 H   0  0  0  0  0  0  0  0  0  0  0  0
   -0.2904   -2.0251    1.3524 H   0  0  0  0  0  0  0  0  0  0  0  0
   -1.3991    0.7189    1.4585 H   0  0  0  0  0  0  0  0  0  0  0  0
    0.0070    0.1457    2.3813 H   0  0  0  0  0  0  0  0  0  0  0  0
    0.9555    1.8635    0.5693 H   0  0  0  0  0  0  0  0  0  0  0  0
  6 15  1  0
  2  9  1  0
  1  8  1  0
  1  2  1  0
  2  6  1  0
  2  3  1  0
  6  7  1  0
  5  6  1  0
  3  7  1  0
  5 14  1  0
  5 13  1  0
  4  5  1  0
  3 10  1  0
  3  4  1  0
  4 12  1  0
  4 11  1  0
M  END
$$$$

     RDKit          3D

 15 17  0  0  0  0  0  0  0  0999 V2000
    0.0771    2.0508   -1.0288 O   0  0  0  0  0  0  0  0  0  0  0  0
    0.0559    0.8536   -0.2620 C   0  0  0  0  0  0  0  0  0  0  0  0
    1.0311    0.6684    0.8628 C   0  0  0  0  0  0  0  0  0  0  0  0
    1.0456   -0.7695    1.1070 O   0  0  0  0  0  0  0  0  0  0  0  0
    0.3157   -1.4283    0.0105 C   0  0  0  0  0  0  0  0  0  0  0  0
    0.0258   -0.3834   -0.9753 C   0  0  0  0  0  0  0  0  0  0  0  0
   -1.2567    0.0171   -0.2770 C   0  0  0  0  0  0  0  0  0  0  0  0
   -1.2484   -1.4239    0.1590 C   0  0  0  0  0  0  0  0  0  0  0  0
   -2.2033   -2.1626    0.3267 O   0  0  0  0  0  0  0  0  0  0  0  0
    0.3052    2.8259   -0.4831 H   0  0  0  0  0  0  0  0  0  0  0  0
    0.7719    1.2268    1.7687 H   0  0  0  0  0  0  0  0  0  0  0  0
    2.0329    0.9587    0.5317 H   0  0  0  0  0  0  0  0  0  0  0  0
    0.7622   -2.3834   -0.2511 H   0  0  0  0  0  0  0  0  0  0  0  0
    0.0366   -0.6014   -2.0301 H   0  0  0  0  0  0  0  0  0  0  0  0
   -1.7517    0.5511    0.5411 H   0  0  0  0  0  0  0  0  0  0  0  0
  3 11  1  0
  3  4  1  0
  4  5  1  0
  3 12  1  0
  2  3  1  0
  5 13  1  0
  5  6  1  0
  5  8  1  0
  6 14  1  0
  1  2  1  0
  2  6  1  0
  2  7  1  0
  1 10  1  0
  6  7  1  0
  7  8  1  0
  8  9  2  0
  7 15  1  0
M  END
$$$$

     RDKit          3D

 19 21  0  0  0  0  0  0  0  0999 V2000
    1.4696    1.6421    0.3958 O   0  0  0  0  0  0  0  0  0  0  0  0
    0.4826    0.6499    0.0801 C   0  0  0  0  0  0  0  0  0  0  0  0
   -0.2765    0.7468   -1.1422 C   0  0  0  0  0  0  0  0  0  0  0  0
    0.3872   -0.5734   -1.5885 C   0  0  0  0  0  0  0  0  0  0  0  0
    0.9691   -0.8495   -0.1686 C   0  0  0  0  0  0  0  0  0  0  0  0
    0.6253   -1.1833    1.3525 C   0  0  0  0  0  0  0  0  0  0  0  0
   -0.7769   -0.6545    1.7248 C   0  0  0  0  0  0  0  0  0  0  0  0
   -0.7942    0.6105    0.9299 C   0  0  0  0  0  0  0  0  0  0  0  0
   -1.6244    0.4536   -0.4201 C   0  0  0  0  0  0  0  0  0  0  0  0
    1.1299    2.4717    0.0341 H   0  0  0  0  0  0  0  0  0  0  0  0
   -0.1144    1.6092   -1.8921 H   0  0  0  0  0  0  0  0  0  0  0  0
    1.1467   -0.2983   -2.3343 H   0  0  0  0  0  0  0  0  0  0  0  0
   -0.2693   -1.3365   -2.0102 H   0  0  0  0  0  0  0  0  0  0  0  0
    0.9495   -1.9724   -0.4237 H   0  0  0  0  0  0  0  0  0  0  0  0
    1.3526   -0.6600    1.9151 H   0  0  0  0  0  0  0  0  0  0  0  0
    0.7746   -2.2940    1.5482 H   0  0  0  0  0  0  0  0  0  0  0  0
   -0.8016   -0.3611    2.8003 H   0  0  0  0  0  0  0  0  0  0  0  0
   -2.0622    1.3497   -0.9525 H   0  0  0  0  0  0  0  0  0  0  0  0
   -2.5675    0.6495    0.1514 H   0  0  0  0  0  0  0  0  0  0  0  0
  5 14  1  0
  4 13  1  0
  4  5  1  0
  5  6  1  0
  2  5  1  0
  6 16  1  0
  6 15  1  0
  4 12  1  0
  3  4  1  0
  6  7  1  0
  1  2  1  0
  1 10  1  0
  2  3  1  0
  2  8  1  0
  3 11  1  0
  3  9  1  0
  7  8  1  0
  7 17  1  0
  8  9  1  0
  9 19  1  0
  9 18  1  0
M  END
$$$$

     RDKit          3D

 19 20  0  0  0  0  0  0  0  0999 V2000
   -1.0308    1.8377    0.2405 C   0  0  0  0  0  0  0  0  0  0  0  0
   -1.0757    0.3169    0.3303 C   0  0  0  0  0  0  0  0  0  0  0  0
   -0.6354   -0.6921   -0.8373 C   0  0  0  0  0  0  0  0  0  0  0  0
    0.7145   -0.4176   -1.4588 C   0  0  0  0  0  0  0  0  0  0  0  0
    1.7441   -0.2368   -0.3848 C   0  0  0  0  0  0  0  0  0  0  0  0
    1.4415   -0.1089    0.9143 C   0  0  0  0  0  0  0  0  0  0  0  0
    0.0062   -0.3909    1.2729 C   0  0  0  0  0  0  0  0  0  0  0  0
   -0.4740   -1.7052    0.3904 C   0  0  0  0  0  0  0  0  0  0  0  0
   -0.6325   -2.9115    0.5262 O   0  0  0  0  0  0  0  0  0  0  0  0
   -0.9137    2.2185   -0.7950 H   0  0  0  0  0  0  0  0  0  0  0  0
   -0.2050    2.2418    0.8487 H   0  0  0  0  0  0  0  0  0  0  0  0
   -1.9408    2.2703    0.6602 H   0  0  0  0  0  0  0  0  0  0  0  0
   -2.1305    0.0441    0.6075 H   0  0  0  0  0  0  0  0  0  0  0  0
   -1.4191   -0.9565   -1.5650 H   0  0  0  0  0  0  0  0  0  0  0  0
    0.9945   -1.2760   -2.0813 H   0  0  0  0  0  0  0  0  0  0  0  0
    0.7219    0.5085   -2.0594 H   0  0  0  0  0  0  0  0  0  0  0  0
    2.8165   -0.3045   -0.6592 H   0  0  0  0  0  0  0  0  0  0  0  0
    2.1814   -0.0477    1.7140 H   0  0  0  0  0  0  0  0  0  0  0  0
   -0.1631   -0.3901    2.3360 H   0  0  0  0  0  0  0  0  0  0  0  0
  4 15  1  0
  4 16  1  0
  3 14  1  0
  3  4  1  0
  4  5  1  0
  3  8  1  0
  2  3  1  0
  1 11  1  0
  5 17  1  0
  5  6  2  0
  8  9  2  0
  7  8  1  0
  1 10  1  0
  1  2  1  0
  2 13  1  0
  2  7  1  0
  1 12  1  0
  6  7  1  0
  6 18  1  0
  7 19  1  0
M  END
$$$$

     RDKit          3D

 16 16  0  0  0  0  0  0  0  0999 V2000
    0.9966    1.8974    0.2035 C   0  0  0  0  0  0  0  0  0  0  0  0
   -0.4028    1.3097    0.1973 C   0  0  0  0  0  0  0  0  0  0  0  0
   -0.3683   -0.1680    0.0705 C   0  0  0  0  0  0  0  0  0  0  0  0
   -0.3405   -1.0050   -1.0223 C   0  0  0  0  0  0  0  0  0  0  0  0
   -0.3816   -0.5873   -2.2898 O   0  0  0  0  0  0  0  0  0  0  0  0
   -0.2580   -2.3160   -0.6640 N   0  0  0  0  0  0  0  0  0  0  0  0
   -0.2356   -2.2946    0.6539 C   0  0  0  0  0  0  0  0  0  0  0  0
   -0.3270   -1.0225    1.1417 N   0  0  0  0  0  0  0  0  0  0  0  0
    0.9521    2.9901    0.2867 H   0  0  0  0  0  0  0  0  0  0  0  0
    1.5641    1.5191    1.0609 H   0  0  0  0  0  0  0  0  0  0  0  0
    1.5375    1.6537   -0.7160 H   0  0  0  0  0  0  0  0  0  0  0  0
   -0.9697    1.7350   -0.6311 H   0  0  0  0  0  0  0  0  0  0  0  0
   -0.9327    1.6034    1.1169 H   0  0  0  0  0  0  0  0  0  0  0  0
   -0.4290   -1.3983   -2.8304 H   0  0  0  0  0  0  0  0  0  0  0  0
   -0.1327   -3.1542    1.2952 H   0  0  0  0  0  0  0  0  0  0  0  0
   -0.2723   -0.7627    2.1271 H   0  0  0  0  0  0  0  0  0  0  0  0
  5 14  1  0
  4  5  1  0
  4  6  1  0
  3  4  2  0
  2 12  1  0
  6  7  2  0
  1 10  1  0
  2  3  1  0
  3  8  1  0
  1  2  1  0
  2 13  1  0
  1  9  1  0
  1 11  1  0
  7  8  1  0
  7 15  1  0
  8 16  1  0
M  END
$$$$

     RDKit          3D

 18 19  0  0  0  0  0  0  0  0999 V2000
    1.7784    2.3210   -0.6551 O   0  0  0  0  0  0  0  0  0  0  0  0
    0.5355    1.8603   -1.2662 N   0  0  0  0  0  0  0  0  0  0  0  0
   -0.4693    1.7791   -0.1950 C   0  0  0  0  0  0  0  0  0  0  0  0
    0.0052    0.8620    0.9636 C   0  0  0  0  0  0  0  0  0  0  0  0
   -0.5016   -0.2675    0.1419 C   0  0  0  0  0  0  0  0  0  0  0  0
   -0.6949   -1.6886    0.5522 C   0  0  0  0  0  0  0  0  0  0  0  0
    0.3298   -1.3437   -0.4976 C   0  0  0  0  0  0  0  0  0  0  0  0
    1.7082   -1.3885   -0.1022 O   0  0  0  0  0  0  0  0  0  0  0  0
   -1.4349    0.6239   -0.5976 C   0  0  0  0  0  0  0  0  0  0  0  0
    2.2935    1.4948   -0.7649 H   0  0  0  0  0  0  0  0  0  0  0  0
    1.0659    0.8834    1.2226 H   0  0  0  0  0  0  0  0  0  0  0  0
   -0.5636    0.9977    1.8952 H   0  0  0  0  0  0  0  0  0  0  0  0
   -0.3609   -1.9792    1.5437 H   0  0  0  0  0  0  0  0  0  0  0  0
   -1.6119   -2.1844    0.2364 H   0  0  0  0  0  0  0  0  0  0  0  0
    0.1035   -1.6082   -1.5239 H   0  0  0  0  0  0  0  0  0  0  0  0
    1.8089   -1.5074    0.8586 H   0  0  0  0  0  0  0  0  0  0  0  0
   -2.4263    0.7092   -0.1433 H   0  0  0  0  0  0  0  0  0  0  0  0
   -1.5656    0.4362   -1.6684 H   0  0  0  0  0  0  0  0  0  0  0  0
  8 16  1  0
  7  8  1  0
  7 15  1  0
  5  7  1  0
  6  7  1  0
  4 12  1  0
  9 17  1  0
  5  6  1  0
  4  5  1  0
  5  9  1  0
  6 14  1  0
  6 13  1  0
  3  4  1  0
  4 11  1  0
  3  9  1  0
  9 18  1  0
  2  3  1  0
  1  2  1  0
  1 10  1  0
M  END
$$$$

     RDKit          3D

 18 19  0  0  0  0  0  0  0  0999 V2000
   -1.9259    1.2670    0.3698 C   0  0  0  0  0  0  0  0  0  0  0  0
   -0.7551    0.3668    0.0628 C   0  0  0  0  0  0  0  0  0  0  0  0
   -0.0624    0.5620   -1.2578 N   0  0  0  0  0  0  0  0  0  0  0  0
    1.3008    0.8660   -0.8829 C   0  0  0  0  0  0  0  0  0  0  0  0
    2.2100    0.2710   -1.8522 N   0  0  0  0  0  0  0  0  0  0  0  0
    1.5986    0.3373    0.4295 O   0  0  0  0  0  0  0  0  0  0  0  0
    0.3324    0.1875    1.1489 C   0  0  0  0  0  0  0  0  0  0  0  0
   -0.5930   -0.9450    0.8036 C   0  0  0  0  0  0  0  0  0  0  0  0
   -0.0736   -2.1463    0.1343 N   0  0  0  0  0  0  0  0  0  0  0  0
   -1.7431    2.2431   -0.1398 H   0  0  0  0  0  0  0  0  0  0  0  0
   -1.9821    1.4961    1.4403 H   0  0  0  0  0  0  0  0  0  0  0  0
   -2.8779    0.8300    0.0252 H   0  0  0  0  0  0  0  0  0  0  0  0
    3.0641    0.0257   -1.3614 H   0  0  0  0  0  0  0  0  0  0  0  0
    1.7475   -0.5890   -2.1470 H   0  0  0  0  0  0  0  0  0  0  0  0
    0.2325    0.6609    2.1242 H   0  0  0  0  0  0  0  0  0  0  0  0
   -1.3355   -1.1805    1.5787 H   0  0  0  0  0  0  0  0  0  0  0  0
    0.9086   -2.2842    0.4152 H   0  0  0  0  0  0  0  0  0  0  0  0
   -0.0460   -1.9685   -0.8915 H   0  0  0  0  0  0  0  0  0  0  0  0
  9 18  1  0
  9 17  1  0
  8  9  1  0
  1 11  1  0
  8 16  1  0
  2  8  1  0
  7  8  1  0
  2  3  1  0
  3  4  1  0
  1  2  1  0
  1 10  1  0
  1 12  1  0
  2  7  1  0
  5 13  1  0
  4  5  1  0
  4  6  1  0
  5 14  1  0
  6  7  1  0
  7 15  1  0
M  END
$$$$

     RDKit          3D

 15 15  0  0  0  0  0  0  0  0999 V2000
   -1.4605   -2.6315   -1.1095 O   0  0  0  0  0  0  0  0  0  0  0  0
   -0.4200   -2.2503   -0.5842 C   0  0  0  0  0  0  0  0  0  0  0  0
    0.4617   -3.0437    0.0911 O   0  0  0  0  0  0  0  0  0  0  0  0
   -0.0270   -0.8455   -0.5005 C   0  0  0  0  0  0  0  0  0  0  0  0
    1.2041   -0.3409   -0.6090 C   0  0  0  0  0  0  0  0  0  0  0  0
    1.1852    1.0296   -0.5180 N   0  0  0  0  0  0  0  0  0  0  0  0
   -0.1094    1.4928   -0.0513 C   0  0  0  0  0  0  0  0  0  0  0  0
   -0.1427    2.0222    1.2980 N   0  0  0  0  0  0  0  0  0  0  0  0
    0.5610    1.4940    1.8286 H   0  0  0  0  0  0  0  0  0  0  0  0
   -1.0373    1.7982    1.7402 H   0  0  0  0  0  0  0  0  0  0  0  0
   -1.0280    0.2408   -0.2575 C   0  0  0  0  0  0  0  0  0  0  0  0
    2.1338   -0.8772   -0.7560 H   0  0  0  0  0  0  0  0  0  0  0  0
    1.9978    1.4810   -0.0959 H   0  0  0  0  0  0  0  0  0  0  0  0
   -1.6891    0.4011   -1.1092 H   0  0  0  0  0  0  0  0  0  0  0  0
   -1.6297    0.0295    0.6333 H   0  0  0  0  0  0  0  0  0  0  0  0
 11 15  1  0
  2  3  1  0
  1  2  2  0
  2  4  1  0
  4 11  1  0
  4  5  2  0
  7 11  1  0
 11 14  1  0
  5 12  1  0
  5  6  1  0
  6  7  1  0
  7  8  1  0
  6 13  1  0
  8 10  1  0
  8  9  1  0
M  END
$$$$

     RDKit          3D

 15 17  0  0  0  0  0  0  0  0999 V2000
    0.0054   -3.1267    0.1263 O   0  0  0  0  0  0  0  0  0  0  0  0
   -0.1369   -1.9221   -0.0299 C   0  0  0  0  0  0  0  0  0  0  0  0
   -1.2587   -1.2529    0.4149 O   0  0  0  0  0  0  0  0  0  0  0  0
   -1.1402    0.1597    0.1007 C   0  0  0  0  0  0  0  0  0  0  0  0
   -0.3479    1.0221    1.1166 C   0  0  0  0  0  0  0  0  0  0  0  0
    0.8640    0.9906    0.1666 C   0  0  0  0  0  0  0  0  0  0  0  0
    1.7275   -0.1724    0.1527 O   0  0  0  0  0  0  0  0  0  0  0  0
    0.8103   -0.8728   -0.7500 C   0  0  0  0  0  0  0  0  0  0  0  0
   -0.0125    0.4040   -0.9139 C   0  0  0  0  0  0  0  0  0  0  0  0
   -2.1094    0.5815   -0.1780 H   0  0  0  0  0  0  0  0  0  0  0  0
   -0.7602    2.0237    1.2615 H   0  0  0  0  0  0  0  0  0  0  0  0
   -0.1910    0.5665    2.0973 H   0  0  0  0  0  0  0  0  0  0  0  0
    1.3814    1.9263   -0.0523 H   0  0  0  0  0  0  0  0  0  0  0  0
    1.3176   -1.2352   -1.6470 H   0  0  0  0  0  0  0  0  0  0  0  0
   -0.1496    0.9079   -1.8655 H   0  0  0  0  0  0  0  0  0  0  0  0
  9 15  1  0
  8 14  1  0
  1  2  2  0
  2  8  1  0
  2  3  1  0
  8  9  1  0
  7  8  1  0
  4  9  1  0
  6  9  1  0
  4 10  1  0
  3  4  1  0
  4  5  1  0
  6  7  1  0
  5  6  1  0
  6 13  1  0
  5 11  1  0
  5 12  1  0
M  END
$$$$

     RDKit          3D

 16 16  0  0  0  0  0  0  0  0999 V2000
   -1.8579    1.8048    0.4311 C   0  0  0  0  0  0  0  0  0  0  0  0
   -0.9893    0.8161   -0.1474 N   0  0  0  0  0  0  0  0  0  0  0  0
   -0.4250    0.8724   -1.3937 C   0  0  0  0  0  0  0  0  0  0  0  0
    0.3969   -0.1271   -1.5908 N   0  0  0  0  0  0  0  0  0  0  0  0
    0.3963   -0.8613   -0.4167 C   0  0  0  0  0  0  0  0  0  0  0  0
   -0.4747   -0.2867    0.4886 C   0  0  0  0  0  0  0  0  0  0  0  0
    1.3229   -1.9583   -0.1575 C   0  0  0  0  0  0  0  0  0  0  0  0
    2.2818   -1.6427    0.7834 N   0  0  0  0  0  0  0  0  0  0  0  0
    1.3500   -3.0243   -0.7596 O   0  0  0  0  0  0  0  0  0  0  0  0
   -1.7307    2.7542   -0.1065 H   0  0  0  0  0  0  0  0  0  0  0  0
   -1.5719    1.9373    1.4800 H   0  0  0  0  0  0  0  0  0  0  0  0
   -2.8887    1.4460    0.3489 H   0  0  0  0  0  0  0  0  0  0  0  0
   -0.6192    1.6623   -2.0970 H   0  0  0  0  0  0  0  0  0  0  0  0
   -0.7328   -0.5575    1.5048 H   0  0  0  0  0  0  0  0  0  0  0  0
    3.1277   -2.1768    0.6619 H   0  0  0  0  0  0  0  0  0  0  0  0
    2.4145   -0.6581    0.9705 H   0  0  0  0  0  0  0  0  0  0  0  0
  3 13  1  0
  1 11  1  0
  3  4  2  0
  2  3  1  0
  4  5  1  0
  8 15  1  0
  1  2  1  0
  1 10  1  0
  1 12  1  0
  2  6  1  0
  5  6  2  0
  5  7  1  0
  8 16  1  0
  7  8  1  0
  6 14  1  0
  7  9  2  0
M  END
$$$$

     RDKit          3D

 19 20  0  0  0  0  0  0  0  0999 V2000
   -0.1478    1.8969   -0.1840 C   0  0  0  0  0  0  0  0  0  0  0  0
   -0.6227    0.4465   -0.2961 C   0  0  0  0  0  0  0  0  0  0  0  0
    0.2254   -0.3719   -1.2983 C   0  0  0  0  0  0  0  0  0  0  0  0
    1.3034   -1.0509   -0.4438 C   0  0  0  0  0  0  0  0  0  0  0  0
    0.6690   -1.2455    0.8988 C   0  0  0  0  0  0  0  0  0  0  0  0
    0.6867   -0.1647    1.8692 N   0  0  0  0  0  0  0  0  0  0  0  0
   -0.4945   -0.3142    1.0143 C   0  0  0  0  0  0  0  0  0  0  0  0
   -2.0539    0.3986   -0.6236 C   0  0  0  0  0  0  0  0  0  0  0  0
   -3.1861    0.3656   -0.8744 N   0  0  0  0  0  0  0  0  0  0  0  0
   -0.3498    2.4490   -1.1124 H   0  0  0  0  0  0  0  0  0  0  0  0
    0.9263    1.9625    0.0251 H   0  0  0  0  0  0  0  0  0  0  0  0
   -0.6702    2.4174    0.6313 H   0  0  0  0  0  0  0  0  0  0  0  0
    0.6537    0.2342   -2.0991 H   0  0  0  0  0  0  0  0  0  0  0  0
   -0.3893   -1.1498   -1.7735 H   0  0  0  0  0  0  0  0  0  0  0  0
    2.1966   -0.4254   -0.3704 H   0  0  0  0  0  0  0  0  0  0  0  0
    1.6088   -2.0034   -0.8874 H   0  0  0  0  0  0  0  0  0  0  0  0
    0.5702   -2.2697    1.2326 H   0  0  0  0  0  0  0  0  0  0  0  0
    0.4783   -0.4892    2.8213 H   0  0  0  0  0  0  0  0  0  0  0  0
   -1.4041   -0.6860    1.4705 H   0  0  0  0  0  0  0  0  0  0  0  0
  3 13  1  0
  3 14  1  0
  4 16  1  0
  3  4  1  0
  2  3  1  0
  4 15  1  0
  1 11  1  0
  4  5  1  0
  8  9  3  0
  2  8  1  0
  1  2  1  0
  2  7  1  0
  1 10  1  0
  1 12  1  0
  5  6  1  0
  5  7  1  0
  5 17  1  0
  6  7  1  0
  6 18  1  0
  7 19  1  0
M  END
$$$$

     RDKit          3D

 23 22  0  0  0  0  0  0  0  0999 V2000
   -0.5375    0.6438    2.1828 C   0  0  0  0  0  0  0  0  0  0  0  0
    0.3986   -0.4999    1.6336 C   0  0  0  0  0  0  0  0  0  0  0  0
    0.8795   -1.1456    0.1492 C   0  0  0  0  0  0  0  0  0  0  0  0
   -0.6750   -0.9263   -0.4760 O   0  0  0  0  0  0  0  0  0  0  0  0
   -0.9443    0.2190   -1.6346 C   0  0  0  0  0  0  0  0  0  0  0  0
    0.1266    0.1155   -2.3825 C   0  0  0  0  0  0  0  0  0  0  0  0
   -0.8217    1.8837   -1.4872 C   0  0  0  0  0  0  0  0  0  0  0  0
    1.1118   -2.5847    0.6545 C   0  0  0  0  0  0  0  0  0  0  0  0
    1.7344   -2.9881    1.6239 C   0  0  0  0  0  0  0  0  0  0  0  0
   -0.1790    0.6975    3.2596 H   0  0  0  0  0  0  0  0  0  0  0  0
   -0.4779    1.6325    1.7224 H   0  0  0  0  0  0  0  0  0  0  0  0
   -1.5965    0.2557    2.2153 H   0  0  0  0  0  0  0  0  0  0  0  0
   -0.4963   -1.2025    1.8227 H   0  0  0  0  0  0  0  0  0  0  0  0
    0.9529    0.4129    1.2480 H   0  0  0  0  0  0  0  0  0  0  0  0
    1.8155   -0.9383   -0.4509 H   0  0  0  0  0  0  0  0  0  0  0  0
   -2.0535    0.0574   -1.9361 H   0  0  0  0  0  0  0  0  0  0  0  0
    1.2729    0.3213   -2.2971 H   0  0  0  0  0  0  0  0  0  0  0  0
    0.0565   -0.8818   -2.9018 H   0  0  0  0  0  0  0  0  0  0  0  0
    0.3160    0.2039   -1.2541 H   0  0  0  0  0  0  0  0  0  0  0  0
   -1.5278    2.3079   -0.8668 H   0  0  0  0  0  0  0  0  0  0  0  0
   -0.8327    2.5800   -2.1636 H   0  0  0  0  0  0  0  0  0  0  0  0
    0.0008    2.0529   -1.0151 H   0  0  0  0  0  0  0  0  0  0  0  0
    1.4770   -2.2170    2.3541 H   0  0  0  0  0  0  0  0  0  0  0  0
  6 17  1  0
  6 18  1  0
  7 21  1  0
  6 19  1  0
  5  6  1  0
  5 16  1  0
  5  7  1  0
  4  5  1  0
  7 20  1  0
  7 22  1  0
  9 23  1  0
  8  9  3  0
  3 15  1  0
  3  8  1  0
  3  4  1  0
  2  3  1  0
  1 11  1  0
  2 14  1  0
  1  2  1  0
  2 13  1  0
  1 10  1  0
  1 12  1  0
M  END
$$$$

     RDKit          3D

 18 21  0  0  0  0  0  0  0  0999 V2000
    0.9357    2.4863    0.4336 O   0  0  0  0  0  0  0  0  0  0  0  0
    0.5903    1.1731    0.0498 C   0  0  0  0  0  0  0  0  0  0  0  0
    1.4749    0.2538   -0.7828 C   0  0  0  0  0  0  0  0  0  0  0  0
    0.1539   -0.2716   -0.9758 C   0  0  0  0  0  0  0  0  0  0  0  0
   -1.0266   -0.9950   -0.5620 C   0  0  0  0  0  0  0  0  0  0  0  0
   -1.0675   -1.6728    0.7767 C   0  0  0  0  0  0  0  0  0  0  0  0
   -0.4750   -0.5434    1.4285 N   0  0  0  0  0  0  0  0  0  0  0  0
   -1.3495    0.6212    0.2908 C   0  0  0  0  0  0  0  0  0  0  0  0
    0.6831   -0.0522    0.8470 C   0  0  0  0  0  0  0  0  0  0  0  0
    1.7867    2.4773    0.6992 H   0  0  0  0  0  0  0  0  0  0  0  0
    1.8936    0.6072   -1.8439 H   0  0  0  0  0  0  0  0  0  0  0  0
    2.1695   -0.6916   -0.5626 H   0  0  0  0  0  0  0  0  0  0  0  0
   -0.3555    0.6574   -1.6121 H   0  0  0  0  0  0  0  0  0  0  0  0
   -1.8477   -1.2017   -1.2350 H   0  0  0  0  0  0  0  0  0  0  0  0
   -0.3895   -2.5625    0.9541 H   0  0  0  0  0  0  0  0  0  0  0  0
   -2.0914   -1.7750    1.1449 H   0  0  0  0  0  0  0  0  0  0  0  0
   -1.8711    0.8146   -0.7142 H   0  0  0  0  0  0  0  0  0  0  0  0
    0.7863    0.6748    1.6635 H   0  0  0  0  0  0  0  0  0  0  0  0
  3 11  1  0
  3 12  1  0
  3  4  1  0
  2  3  1  0
  4 13  1  0
  4  9  1  0
  4  5  1  0
  9 18  1  0
  1  2  1  0
  1 10  1  0
  2  9  1  0
  2  8  1  0
  7  9  1  0
  5 14  1  0
  5  8  1  0
  5  6  1  0
  7  8  1  0
  8 17  1  0
  6 15  1  0
  6  7  1  0
  6 16  1  0
M  END
$$$$

     RDKit          3D

 17 19  0  0  0  0  0  0  0  0999 V2000
   -1.8255   -0.5601   -2.3346 O   0  0  0  0  0  0  0  0  0  0  0  0
   -1.7034   -0.2859   -1.1639 C   0  0  0  0  0  0  0  0  0  0  0  0
   -2.5319    0.0481   -0.1437 N   0  0  0  0  0  0  0  0  0  0  0  0
   -1.4033    0.2546    0.7800 C   0  0  0  0  0  0  0  0  0  0  0  0
   -0.5394   -0.1818   -0.3305 C   0  0  0  0  0  0  0  0  0  0  0  0
    0.7108   -0.9036   -0.4138 C   0  0  0  0  0  0  0  0  0  0  0  0
    1.8635   -0.6369    0.4837 C   0  0  0  0  0  0  0  0  0  0  0  0
    1.6149    0.8591    0.2157 C   0  0  0  0  0  0  0  0  0  0  0  0
    0.6335    0.5314   -0.8017 N   0  0  0  0  0  0  0  0  0  0  0  0
   -3.2480    0.7236   -0.4004 H   0  0  0  0  0  0  0  0  0  0  0  0
   -1.4528   -0.4290    1.6434 H   0  0  0  0  0  0  0  0  0  0  0  0
   -1.3301    1.2956    1.1385 H   0  0  0  0  0  0  0  0  0  0  0  0
    0.9612   -1.5470   -1.2557 H   0  0  0  0  0  0  0  0  0  0  0  0
    1.6800   -0.9326    1.5438 H   0  0  0  0  0  0  0  0  0  0  0  0
    2.8202   -1.0634    0.1397 H   0  0  0  0  0  0  0  0  0  0  0  0
    1.2574    1.4318    1.0786 H   0  0  0  0  0  0  0  0  0  0  0  0
    2.4928    1.3962   -0.1792 H   0  0  0  0  0  0  0  0  0  0  0  0
  8 16  1  0
  8 17  1  0
  4 11  1  0
  8  9  1  0
  7  8  1  0
  5  9  1  0
  6  9  1  0
  3 10  1  0
  3  4  1  0
  2  3  1  0
  1  2  2  0
  4  5  1  0
  4 12  1  0
  2  5  1  0
  5  6  1  0
  6  7  1  0
  6 13  1  0
  7 14  1  0
  7 15  1  0
M  END
$$$$

     RDKit          3D

 16 17  0  0  0  0  0  0  0  0999 V2000
    0.6707   -0.4399   -1.8259 N   0  0  0  0  0  0  0  0  0  0  0  0
    0.9297   -0.2187   -0.3851 C   0  0  0  0  0  0  0  0  0  0  0  0
    2.3060   -0.4652    0.0486 C   0  0  0  0  0  0  0  0  0  0  0  0
    3.3453   -0.9261    0.3426 N   0  0  0  0  0  0  0  0  0  0  0  0
   -0.0211   -0.8098    0.6639 C   0  0  0  0  0  0  0  0  0  0  0  0
   -1.4633   -0.8918    0.4395 N   0  0  0  0  0  0  0  0  0  0  0  0
   -1.5684    0.5500    0.1427 C   0  0  0  0  0  0  0  0  0  0  0  0
   -0.0859    0.6513    0.3506 C   0  0  0  0  0  0  0  0  0  0  0  0
    0.4115    1.6284    1.2958 O   0  0  0  0  0  0  0  0  0  0  0  0
    1.3977   -0.0350   -2.4029 H   0  0  0  0  0  0  0  0  0  0  0  0
   -0.2102   -0.0070   -2.1327 H   0  0  0  0  0  0  0  0  0  0  0  0
    0.3081   -1.0499    1.7097 H   0  0  0  0  0  0  0  0  0  0  0  0
   -1.7143   -1.5097   -0.3238 H   0  0  0  0  0  0  0  0  0  0  0  0
   -1.9396    0.7702   -0.8583 H   0  0  0  0  0  0  0  0  0  0  0  0
   -2.2142    1.1034    0.8359 H   0  0  0  0  0  0  0  0  0  0  0  0
   -0.1519    1.6499    2.0995 H   0  0  0  0  0  0  0  0  0  0  0  0
  9 16  1  0
  3  4  3  0
  8  9  1  0
  2  3  1  0
  1  2  1  0
  1 11  1  0
  1 10  1  0
  2  8  1  0
  2  5  1  0
  7  8  1  0
  5  8  1  0
  7 15  1  0
  7 14  1  0
  6  7  1  0
  5 12  1  0
  5  6  1  0
  6 13  1  0
M  END
$$$$

     RDKit          3D

  8  8  0  0  0  0  0  0  0  0999 V2000
   -0.4598   -0.6122   -1.8106 O   0  0  0  0  0  0  0  0  0  0  0  0
   -0.1755   -0.2337   -0.6912 C   0  0  0  0  0  0  0  0  0  0  0  0
    1.0484    0.1442   -0.2011 N   0  0  0  0  0  0  0  0  0  0  0  0
    0.9332    0.5001    1.1069 N   0  0  0  0  0  0  0  0  0  0  0  0
   -0.2813    0.3678    1.4601 N   0  0  0  0  0  0  0  0  0  0  0  0
   -0.9993   -0.0789    0.3943 N   0  0  0  0  0  0  0  0  0  0  0  0
    1.9233    0.1694   -0.6980 H   0  0  0  0  0  0  0  0  0  0  0  0
   -1.9889   -0.2568    0.4395 H   0  0  0  0  0  0  0  0  0  0  0  0
  1  2  2  0
  2  3  1  0
  2  6  1  0
  3  4  1  0
  3  7  1  0
  4  5  2  0
  5  6  1  0
  6  8  1  0
M  END
$$$$

     RDKit          3D

 15 15  0  0  0  0  0  0  0  0999 V2000
    0.5620    2.9468   -0.5722 N   0  0  0  0  0  0  0  0  0  0  0  0
    0.1638    1.6824   -0.6330 C   0  0  0  0  0  0  0  0  0  0  0  0
   -0.8272    1.2155   -1.3881 N   0  0  0  0  0  0  0  0  0  0  0  0
   -0.7884   -0.1007   -1.1045 N   0  0  0  0  0  0  0  0  0  0  0  0
    0.1783   -0.3687   -0.1740 C   0  0  0  0  0  0  0  0  0  0  0  0
    0.4674   -1.7216    0.3426 C   0  0  0  0  0  0  0  0  0  0  0  0
   -0.4539   -2.0091    1.4936 C   0  0  0  0  0  0  0  0  0  0  0  0
   -0.9673   -3.1161    1.6746 O   0  0  0  0  0  0  0  0  0  0  0  0
    0.7789    0.7561    0.1490 N   0  0  0  0  0  0  0  0  0  0  0  0
    1.1064    3.2381    0.2285 H   0  0  0  0  0  0  0  0  0  0  0  0
   -0.0420    3.6587   -0.9732 H   0  0  0  0  0  0  0  0  0  0  0  0
   -1.4392   -0.7261   -1.5637 H   0  0  0  0  0  0  0  0  0  0  0  0
    1.4952   -1.7694    0.7169 H   0  0  0  0  0  0  0  0  0  0  0  0
    0.3404   -2.4856   -0.4349 H   0  0  0  0  0  0  0  0  0  0  0  0
   -0.5743   -1.2003    2.2384 H   0  0  0  0  0  0  0  0  0  0  0  0
  7  8  2  0
  7 15  1  0
  6  7  1  0
  4 12  1  0
  3  4  1  0
  2  3  2  0
  4  5  1  0
  1  2  1  0
  1 11  1  0
  1 10  1  0
  2  9  1  0
  5  6  1  0
  5  9  2  0
  6 14  1  0
  6 13  1  0
M  END
$$$$

     RDKit          3D

 17 17  0  0  0  0  0  0  0  0999 V2000
   -0.9659    1.7453   -0.7023 N   0  0  0  0  0  0  0  0  0  0  0  0
   -0.1875    2.2768   -1.0938 H   0  0  0  0  0  0  0  0  0  0  0  0
    2.5318   -1.1607   -1.1701 H   0  0  0  0  0  0  0  0  0  0  0  0
   -1.6187    2.4548   -0.3442 H   0  0  0  0  0  0  0  0  0  0  0  0
   -0.5676    0.7835    0.3241 C   0  0  0  0  0  0  0  0  0  0  0  0
   -1.5743   -0.3823    0.3154 C   0  0  0  0  0  0  0  0  0  0  0  0
   -0.3817   -1.3537    0.2194 C   0  0  0  0  0  0  0  0  0  0  0  0
    0.5121   -0.1739   -0.2569 C   0  0  0  0  0  0  0  0  0  0  0  0
    1.9328   -0.1021    0.3703 C   0  0  0  0  0  0  0  0  0  0  0  0
    2.2367    0.4596    1.4172 O   0  0  0  0  0  0  0  0  0  0  0  0
    2.8821   -0.7333   -0.3696 O   0  0  0  0  0  0  0  0  0  0  0  0
   -0.3607    1.2052    1.3106 H   0  0  0  0  0  0  0  0  0  0  0  0
   -2.2478   -0.4316   -0.5546 H   0  0  0  0  0  0  0  0  0  0  0  0
   -2.1662   -0.4890    1.2330 H   0  0  0  0  0  0  0  0  0  0  0  0
   -0.0867   -1.7971    1.1828 H   0  0  0  0  0  0  0  0  0  0  0  0
   -0.5009   -2.1572   -0.5198 H   0  0  0  0  0  0  0  0  0  0  0  0
    0.5625   -0.1443   -1.3614 H   0  0  0  0  0  0  0  0  0  0  0  0
  1  2  1  0
  1  4  1  0
  1  5  1  0
  3 11  1  0
  6 14  1  0
  5  6  1  0
  5 12  1  0
  5  8  1  0
  6 13  1  0
  9 11  1  0
  6  7  1  0
  8  9  1  0
  9 10  2  0
  7  8  1  0
  8 17  1  0
  7 16  1  0
  7 15  1  0
M  END
$$$$

     RDKit          3D

 21 22  0  0  0  0  0  0  0  0999 V2000
    1.6425    1.2992    1.0107 C   0  0  0  0  0  0  0  0  0  0  0  0
    1.0575    2.4728    0.0524 C   0  0  0  0  0  0  0  0  0  0  0  0
    0.1716    1.1926   -0.6483 C   0  0  0  0  0  0  0  0  0  0  0  0
    1.7701    0.5425   -0.5575 C   0  0  0  0  0  0  0  0  0  0  0  0
   -0.8937    0.1476   -0.2623 C   0  0  0  0  0  0  0  0  0  0  0  0
   -1.1710   -1.1738   -1.2965 C   0  0  0  0  0  0  0  0  0  0  0  0
   -1.6365   -2.3047   -0.4115 C   0  0  0  0  0  0  0  0  0  0  0  0
   -0.9923   -2.0770    0.9040 O   0  0  0  0  0  0  0  0  0  0  0  0
   -0.9700   -0.6575    0.9938 C   0  0  0  0  0  0  0  0  0  0  0  0
    0.5103    1.7151    1.5978 H   0  0  0  0  0  0  0  0  0  0  0  0
    1.4628    0.3636    1.7832 H   0  0  0  0  0  0  0  0  0  0  0  0
    1.8632    3.0986   -0.5225 H   0  0  0  0  0  0  0  0  0  0  0  0
    0.4620    3.1474    0.5957 H   0  0  0  0  0  0  0  0  0  0  0  0
    2.4199    1.0605   -1.2446 H   0  0  0  0  0  0  0  0  0  0  0  0
    1.8608   -0.5960   -0.5347 H   0  0  0  0  0  0  0  0  0  0  0  0
   -0.1115   -1.2541   -1.7117 H   0  0  0  0  0  0  0  0  0  0  0  0
   -2.0788   -0.7296   -1.9312 H   0  0  0  0  0  0  0  0  0  0  0  0
   -1.7788   -3.3602   -0.7011 H   0  0  0  0  0  0  0  0  0  0  0  0
   -2.6867   -2.0907   -0.1819 H   0  0  0  0  0  0  0  0  0  0  0  0
   -1.0258   -0.2474    2.0878 H   0  0  0  0  0  0  0  0  0  0  0  0
    0.1245   -0.5488    0.9786 H   0  0  0  0  0  0  0  0  0  0  0  0
  1 11  1  0
  1 10  1  0
  1  4  1  0
  1  2  1  0
  4 15  1  0
  2 12  1  0
  3  4  1  0
  4 14  1  0
  2  3  1  0
  2 13  1  0
  3  5  2  3
  9 20  1  0
  6 17  1  0
  7 19  1  0
  5  6  1  0
  5  9  1  0
  6  7  1  0
  6 16  1  0
  9 21  1  0
  8  9  1  0
  7  8  1  0
  7 18  1  0
M  END
$$$$

     RDKit          3D

 18 19  0  0  0  0  0  0  0  0999 V2000
    2.4134    0.7084   -0.8855 N   0  0  0  0  0  0  0  0  0  0  0  0
    2.5648   -0.0242    0.5151 C   0  0  0  0  0  0  0  0  0  0  0  0
    1.3373   -0.4223    1.1380 O   0  0  0  0  0  0  0  0  0  0  0  0
    0.3262   -1.1020    0.3771 C   0  0  0  0  0  0  0  0  0  0  0  0
   -1.5752   -0.3911    0.7322 C   0  0  0  0  0  0  0  0  0  0  0  0
   -1.2901    1.1707   -0.6068 C   0  0  0  0  0  0  0  0  0  0  0  0
   -0.0004   -0.0394   -1.2661 C   0  0  0  0  0  0  0  0  0  0  0  0
   -1.0350   -0.3433   -0.4290 C   0  0  0  0  0  0  0  0  0  0  0  0
   -1.8553   -1.3714   -0.2516 C   0  0  0  0  0  0  0  0  0  0  0  0
    2.2089    1.6815   -0.6557 H   0  0  0  0  0  0  0  0  0  0  0  0
    2.8957    0.9234    1.0981 H   0  0  0  0  0  0  0  0  0  0  0  0
   -0.0146   -2.0183    0.8544 H   0  0  0  0  0  0  0  0  0  0  0  0
   -1.6516   -0.4158    1.8020 H   0  0  0  0  0  0  0  0  0  0  0  0
   -1.5588    2.0188    0.3444 H   0  0  0  0  0  0  0  0  0  0  0  0
   -0.4682    2.0542   -0.6457 H   0  0  0  0  0  0  0  0  0  0  0  0
   -0.4348   -0.6350   -2.1110 H   0  0  0  0  0  0  0  0  0  0  0  0
   -0.3037    0.5698    0.5659 H   0  0  0  0  0  0  0  0  0  0  0  0
   -1.5586   -2.3642   -0.5759 H   0  0  0  0  0  0  0  0  0  0  0  0
  7 16  1  0
  8 17  1  0
  7  8  1  0
  4  7  1  0
  6  7  1  0
  8  9  2  0
  4 12  1  0
  3  4  1  0
  2  3  1  0
  4  5  1  0
  1  2  1  0
  2 11  1  0
  1 10  1  0
  6 15  1  0
  6 14  1  0
  5  6  1  0
  5  9  1  0
  9 18  1  0
  5 13  1  0
M  END
$$$$

     RDKit          3D

 21 21  0  0  0  0  0  0  0  0999 V2000
    0.3019    2.4797    1.3528 C   0  0  0  0  0  0  0  0  0  0  0  0
    0.2395    0.9305    1.3222 C   0  0  0  0  0  0  0  0  0  0  0  0
   -0.1333    0.3516   -0.0933 C   0  0  0  0  0  0  0  0  0  0  0  0
    1.2675   -0.0193   -0.6735 C   0  0  0  0  0  0  0  0  0  0  0  0
    1.2198   -1.5965   -0.9274 C   0  0  0  0  0  0  0  0  0  0  0  0
   -0.1425   -1.9769   -0.4003 C   0  0  0  0  0  0  0  0  0  0  0  0
   -0.9558   -0.9269   -0.1623 C   0  0  0  0  0  0  0  0  0  0  0  0
   -2.3507   -1.1369   -0.4776 C   0  0  0  0  0  0  0  0  0  0  0  0
   -3.4366   -1.2410   -1.1611 C   0  0  0  0  0  0  0  0  0  0  0  0
    0.4975    2.9309    0.2869 H   0  0  0  0  0  0  0  0  0  0  0  0
   -0.6925    2.8517    1.7677 H   0  0  0  0  0  0  0  0  0  0  0  0
    1.0974    2.9198    2.0311 H   0  0  0  0  0  0  0  0  0  0  0  0
    1.2658    0.6190    1.6081 H   0  0  0  0  0  0  0  0  0  0  0  0
   -0.3980    0.6819    2.2119 H   0  0  0  0  0  0  0  0  0  0  0  0
   -0.5520    1.0952   -0.8288 H   0  0  0  0  0  0  0  0  0  0  0  0
    2.1046    0.2515   -0.0288 H   0  0  0  0  0  0  0  0  0  0  0  0
    1.4855    0.5939   -1.5261 H   0  0  0  0  0  0  0  0  0  0  0  0
    1.6051   -2.6747   -1.0807 H   0  0  0  0  0  0  0  0  0  0  0  0
    2.2796   -1.6657   -0.5806 H   0  0  0  0  0  0  0  0  0  0  0  0
   -0.6331   -2.9570   -0.6238 H   0  0  0  0  0  0  0  0  0  0  0  0
   -4.0697   -1.5109   -2.0162 H   0  0  0  0  0  0  0  0  0  0  0  0
  6 20  1  0
  5 18  1  0
  5  6  1  0
  6  7  2  0
  5 19  1  0
  4  5  1  0
  9 21  1  0
  8  9  3  0
  7  8  1  0
  3  7  1  0
  3  4  1  0
  4 16  1  0
  4 17  1  0
  3 15  1  0
  2  3  1  0
  2 14  1  0
  2 13  1  0
  1  2  1  0
  1 11  1  0
  1 10  1  0
  1 12  1  0
M  END
$$$$

     RDKit          3D

 13 13  0  0  0  0  0  0  0  0999 V2000
    2.2560   -1.9782   -1.8394 O   0  0  0  0  0  0  0  0  0  0  0  0
    1.5354   -1.0596   -1.4694 C   0  0  0  0  0  0  0  0  0  0  0  0
    0.9894   -0.1288   -2.3458 O   0  0  0  0  0  0  0  0  0  0  0  0
    0.2906    0.6663   -1.4817 C   0  0  0  0  0  0  0  0  0  0  0  0
    0.3919    0.2657   -0.2362 C   0  0  0  0  0  0  0  0  0  0  0  0
   -0.1870    0.8518    1.0042 C   0  0  0  0  0  0  0  0  0  0  0  0
   -1.2477   -0.0153    1.5347 C   0  0  0  0  0  0  0  0  0  0  0  0
   -2.1145   -0.7223    1.9725 C   0  0  0  0  0  0  0  0  0  0  0  0
    1.2004   -0.8512   -0.1382 O   0  0  0  0  0  0  0  0  0  0  0  0
   -0.2427    1.4956   -1.9095 H   0  0  0  0  0  0  0  0  0  0  0  0
    0.6043    0.9834    1.7508 H   0  0  0  0  0  0  0  0  0  0  0  0
   -0.5959    1.8479    0.7982 H   0  0  0  0  0  0  0  0  0  0  0  0
   -2.8801   -1.3552    2.3598 H   0  0  0  0  0  0  0  0  0  0  0  0
  1  2  2  0
  6 12  1  0
  2  9  1  0
  5  9  1  0
  2  3  1  0
  5  6  1  0
  4  5  2  0
  6 11  1  0
  6  7  1  0
  3  4  1  0
  4 10  1  0
  7  8  3  0
  8 13  1  0
M  END
$$$$

     RDKit          3D

 17 18  0  0  0  0  0  0  0  0999 V2000
    1.6672    2.2801   -0.7573 O   0  0  0  0  0  0  0  0  0  0  0  0
    1.5520    0.9356   -0.3204 C   0  0  0  0  0  0  0  0  0  0  0  0
    0.2934    0.7745    0.4295 C   0  0  0  0  0  0  0  0  0  0  0  0
   -1.0294    0.6581   -0.2096 C   0  0  0  0  0  0  0  0  0  0  0  0
   -1.2344   -0.6888    0.5192 C   0  0  0  0  0  0  0  0  0  0  0  0
   -1.1480   -1.8490   -0.3557 C   0  0  0  0  0  0  0  0  0  0  0  0
   -0.9950   -2.7939   -1.0832 C   0  0  0  0  0  0  0  0  0  0  0  0
    0.0397   -0.4464    1.2591 C   0  0  0  0  0  0  0  0  0  0  0  0
    0.2933    0.8336    1.8566 O   0  0  0  0  0  0  0  0  0  0  0  0
    1.5402    2.8418    0.0367 H   0  0  0  0  0  0  0  0  0  0  0  0
    1.5655    0.2826   -1.1891 H   0  0  0  0  0  0  0  0  0  0  0  0
    2.4235    0.6902    0.2925 H   0  0  0  0  0  0  0  0  0  0  0  0
   -1.7364    1.4453    0.1011 H   0  0  0  0  0  0  0  0  0  0  0  0
   -1.0517    0.6073   -1.3055 H   0  0  0  0  0  0  0  0  0  0  0  0
   -2.0959   -0.7086    1.1954 H   0  0  0  0  0  0  0  0  0  0  0  0
   -0.8507   -3.6238   -1.7417 H   0  0  0  0  0  0  0  0  0  0  0  0
    0.7669   -1.2387    1.2723 H   0  0  0  0  0  0  0  0  0  0  0  0
  1 10  1  0
  8  9  1  0
  3  9  1  0
  2 11  1  0
  8 17  1  0
  1  2  1  0
  3  8  1  0
  5  8  1  0
  2  3  1  0
  2 12  1  0
  7 16  1  0
  3  4  1  0
  6  7  3  0
  5  6  1  0
  4  5  1  0
  5 15  1  0
  4 14  1  0
  4 13  1  0
M  END
$$$$

     RDKit          3D

 21 24  0  0  0  0  0  0  0  0999 V2000
   -0.8374    1.8231   -1.3943 C   0  0  0  0  0  0  0  0  0  0  0  0
   -0.3620    0.4427   -1.7042 C   0  0  0  0  0  0  0  0  0  0  0  0
    1.0085    0.0700   -1.6205 C   0  0  0  0  0  0  0  0  0  0  0  0
   -0.0185   -0.5910   -0.6484 C   0  0  0  0  0  0  0  0  0  0  0  0
   -0.8029   -0.2658    0.6692 C   0  0  0  0  0  0  0  0  0  0  0  0
   -0.3526   -1.6170    1.1367 C   0  0  0  0  0  0  0  0  0  0  0  0
    0.1590   -0.9877    2.4614 C   0  0  0  0  0  0  0  0  0  0  0  0
    0.5314    0.1673    1.2892 C   0  0  0  0  0  0  0  0  0  0  0  0
    0.8976   -1.1123    0.4070 C   0  0  0  0  0  0  0  0  0  0  0  0
   -1.9331    1.8503   -1.3555 H   0  0  0  0  0  0  0  0  0  0  0  0
   -0.5393    2.4057   -2.2121 H   0  0  0  0  0  0  0  0  0  0  0  0
   -0.3436    2.2463   -0.4733 H   0  0  0  0  0  0  0  0  0  0  0  0
   -0.8905   -0.0145   -2.5265 H   0  0  0  0  0  0  0  0  0  0  0  0
    1.8025    0.7351   -1.1770 H   0  0  0  0  0  0  0  0  0  0  0  0
    1.4016   -0.4942   -2.5092 H   0  0  0  0  0  0  0  0  0  0  0  0
   -1.8446    0.0908    0.7907 H   0  0  0  0  0  0  0  0  0  0  0  0
   -0.8950   -2.5561    1.1047 H   0  0  0  0  0  0  0  0  0  0  0  0
    0.6090   -0.2352    3.2016 H   0  0  0  0  0  0  0  0  0  0  0  0
   -0.8012   -1.0566    3.0841 H   0  0  0  0  0  0  0  0  0  0  0  0
    1.4022    0.7903    1.2604 H   0  0  0  0  0  0  0  0  0  0  0  0
    1.8088   -1.6912    0.2160 H   0  0  0  0  0  0  0  0  0  0  0  0
  1 11  1  0
  3 14  1  0
  2 13  1  0
  3 15  1  0
  2  3  1  0
  3  4  1  0
  1  2  1  0
  1 10  1  0
  1 12  1  0
  2  4  1  0
  4  9  1  0
  4  5  1  0
  9 21  1  0
  8  9  1  0
  6  9  1  0
  5 16  1  0
  5  8  1  0
  5  6  1  0
  8 20  1  0
  7  8  1  0
  6 17  1  0
  6  7  1  0
  7 19  1  0
  7 18  1  0
M  END
$$$$

     RDKit          3D

 18 19  0  0  0  0  0  0  0  0999 V2000
   -1.6567    1.3286    0.2065 C   0  0  0  0  0  0  0  0  0  0  0  0
   -1.1157   -0.0833    0.1110 C   0  0  0  0  0  0  0  0  0  0  0  0
   -0.4883   -0.2736   -1.1898 N   0  0  0  0  0  0  0  0  0  0  0  0
    0.8400   -0.3681   -1.4830 C   0  0  0  0  0  0  0  0  0  0  0  0
    1.1905   -0.3827   -2.6625 O   0  0  0  0  0  0  0  0  0  0  0  0
    1.8336   -0.4958   -0.3612 C   0  0  0  0  0  0  0  0  0  0  0  0
    1.2776   -0.5540    1.0155 C   0  0  0  0  0  0  0  0  0  0  0  0
    0.4233   -1.6839    1.2619 O   0  0  0  0  0  0  0  0  0  0  0  0
   -0.2008   -0.3827    1.2542 C   0  0  0  0  0  0  0  0  0  0  0  0
   -2.0290    1.6846   -0.7476 H   0  0  0  0  0  0  0  0  0  0  0  0
   -2.5001    1.3730    0.9336 H   0  0  0  0  0  0  0  0  0  0  0  0
   -0.8786    2.0526    0.5339 H   0  0  0  0  0  0  0  0  0  0  0  0
   -1.9562   -0.7787    0.1393 H   0  0  0  0  0  0  0  0  0  0  0  0
   -1.0702   -0.2194   -2.0264 H   0  0  0  0  0  0  0  0  0  0  0  0
    2.4907    0.3905   -0.4168 H   0  0  0  0  0  0  0  0  0  0  0  0
    2.4160   -1.4085   -0.5606 H   0  0  0  0  0  0  0  0  0  0  0  0
    1.9668   -0.1976    1.7756 H   0  0  0  0  0  0  0  0  0  0  0  0
   -0.5428   -0.0010    2.2162 H   0  0  0  0  0  0  0  0  0  0  0  0
  4  5  2  0
  3 14  1  0
  3  4  1  0
  4  6  1  0
  2  3  1  0
  1 11  1  0
  6 16  1  0
  6 15  1  0
  6  7  1  0
  1 10  1  0
  1  2  1  0
  1 12  1  0
  2 13  1  0
  2  9  1  0
  7  9  1  0
  7  8  1  0
  7 17  1  0
  8  9  1  0
  9 18  1  0
M  END
$$$$

     RDKit          3D

 16 17  0  0  0  0  0  0  0  0999 V2000
   -0.8955   -2.9891   -0.2016 O   0  0  0  0  0  0  0  0  0  0  0  0
   -0.9928   -1.8783   -0.7174 C   0  0  0  0  0  0  0  0  0  0  0  0
   -0.0663   -0.7479   -0.3766 C   0  0  0  0  0  0  0  0  0  0  0  0
    0.7950   -0.8381    0.8752 C   0  0  0  0  0  0  0  0  0  0  0  0
   -0.3916    0.0829    0.8235 C   0  0  0  0  0  0  0  0  0  0  0  0
   -0.2694    1.5499    0.6728 C   0  0  0  0  0  0  0  0  0  0  0  0
    0.7090    1.9532   -0.2950 O   0  0  0  0  0  0  0  0  0  0  0  0
    0.8932    1.1781   -1.3811 C   0  0  0  0  0  0  0  0  0  0  0  0
    0.5398   -0.0525   -1.5248 N   0  0  0  0  0  0  0  0  0  0  0  0
   -1.7895   -1.6389   -1.4512 H   0  0  0  0  0  0  0  0  0  0  0  0
    1.7944   -0.4168    0.8474 H   0  0  0  0  0  0  0  0  0  0  0  0
    0.7216   -1.7372    1.4753 H   0  0  0  0  0  0  0  0  0  0  0  0
   -1.2507   -0.1887    1.4236 H   0  0  0  0  0  0  0  0  0  0  0  0
   -1.2300    1.9844    0.3697 H   0  0  0  0  0  0  0  0  0  0  0  0
    0.0028    2.0122    1.6300 H   0  0  0  0  0  0  0  0  0  0  0  0
    1.4301    1.7270   -2.1698 H   0  0  0  0  0  0  0  0  0  0  0  0
  6 14  1  0
  6 15  1  0
  5 13  1  0
  5  6  1  0
  6  7  1  0
  3  5  1  0
  4  5  1  0
  7  8  1  0
  1  2  2  0
  2  3  1  0
  3  4  1  0
  3  9  1  0
  8 16  1  0
  8  9  2  0
  2 10  1  0
  4 11  1  0
  4 12  1  0
M  END
$$$$

     RDKit          3D

 19 19  0  0  0  0  0  0  0  0999 V2000
   -0.4675    1.9079    1.6254 C   0  0  0  0  0  0  0  0  0  0  0  0
   -0.6814    0.4050    1.7193 C   0  0  0  0  0  0  0  0  0  0  0  0
   -0.1941   -0.3502    0.4852 C   0  0  0  0  0  0  0  0  0  0  0  0
    1.1887   -0.1236    0.3295 O   0  0  0  0  0  0  0  0  0  0  0  0
    1.6580   -0.6005   -0.9316 C   0  0  0  0  0  0  0  0  0  0  0  0
    0.6392   -1.3700   -1.7562 C   0  0  0  0  0  0  0  0  0  0  0  0
    0.9160   -2.4189   -2.3495 O   0  0  0  0  0  0  0  0  0  0  0  0
   -0.7350   -0.7311   -1.7733 C   0  0  0  0  0  0  0  0  0  0  0  0
   -0.9384    0.1170   -0.6371 O   0  0  0  0  0  0  0  0  0  0  0  0
   -1.0511    2.3504    0.8236 H   0  0  0  0  0  0  0  0  0  0  0  0
    0.5912    2.1548    1.5102 H   0  0  0  0  0  0  0  0  0  0  0  0
   -0.8187    2.3996    2.5334 H   0  0  0  0  0  0  0  0  0  0  0  0
   -1.7413    0.2123    1.8454 H   0  0  0  0  0  0  0  0  0  0  0  0
   -0.1665    0.0572    2.6139 H   0  0  0  0  0  0  0  0  0  0  0  0
   -0.3907   -1.4114    0.6379 H   0  0  0  0  0  0  0  0  0  0  0  0
    1.9623    0.2821   -1.5010 H   0  0  0  0  0  0  0  0  0  0  0  0
    2.5568   -1.2137   -0.7099 H   0  0  0  0  0  0  0  0  0  0  0  0
   -0.8606   -0.1413   -2.6855 H   0  0  0  0  0  0  0  0  0  0  0  0
   -1.4669   -1.5255   -1.7799 H   0  0  0  0  0  0  0  0  0  0  0  0
  1 11  1  0
  2 14  1  0
  2 13  1  0
  1  2  1  0
  1 10  1  0
  1 12  1  0
  2  3  1  0
  3  9  1  0
  8  9  1  0
  3 15  1  0
  3  4  1  0
  8 18  1  0
  8 19  1  0
  6  8  1  0
  4  5  1  0
  5  6  1  0
  6  7  2  0
  5 16  1  0
  5 17  1  0
M  END
$$$$

     RDKit          3D

 17 19  0  0  0  0  0  0  0  0999 V2000
   -1.8718   -0.4551   -1.3235 O   0  0  0  0  0  0  0  0  0  0  0  0
   -0.9154   -0.1933   -0.6331 C   0  0  0  0  0  0  0  0  0  0  0  0
    0.3185    0.5737   -0.7514 C   0  0  0  0  0  0  0  0  0  0  0  0
    0.5521    1.9605   -1.1028 C   0  0  0  0  0  0  0  0  0  0  0  0
    0.9033    0.9176   -2.0611 N   0  0  0  0  0  0  0  0  0  0  0  0
    0.9868   -0.2625    0.3388 C   0  0  0  0  0  0  0  0  0  0  0  0
   -0.4801   -0.2400    0.7852 C   0  0  0  0  0  0  0  0  0  0  0  0
   -0.3438   -1.5259    1.8217 C   0  0  0  0  0  0  0  0  0  0  0  0
   -1.4949   -0.7848    1.5986 N   0  0  0  0  0  0  0  0  0  0  0  0
   -0.2445    2.6890   -1.3990 H   0  0  0  0  0  0  0  0  0  0  0  0
    1.3107    2.3960   -0.4732 H   0  0  0  0  0  0  0  0  0  0  0  0
    0.2142    0.9708   -2.8173 H   0  0  0  0  0  0  0  0  0  0  0  0
    1.6447    0.2290    1.0195 H   0  0  0  0  0  0  0  0  0  0  0  0
    1.3781   -1.1613   -0.1789 H   0  0  0  0  0  0  0  0  0  0  0  0
   -0.1684   -2.4927    1.4853 H   0  0  0  0  0  0  0  0  0  0  0  0
    0.3869   -1.3322    2.6407 H   0  0  0  0  0  0  0  0  0  0  0  0
   -2.1763   -1.2888    1.0505 H   0  0  0  0  0  0  0  0  0  0  0  0
  4 11  1  0
  9 17  1  0
  4 10  1  0
  7  9  1  0
  8  9  1  0
  3  4  1  0
  4  5  1  0
  1  2  2  0
  6 13  1  0
  2  3  1  0
  2  7  1  0
  3  6  1  0
  3  5  1  0
  6  7  1  0
  7  8  1  0
  6 14  1  0
  8 16  1  0
  8 15  1  0
  5 12  1  0
M  END
$$$$

     RDKit          3D

 18 21  0  0  0  0  0  0  0  0999 V2000
    0.6856   -0.0544   -1.4187 C   0  0  0  0  0  0  0  0  0  0  0  0
   -0.2975    1.1023   -1.5125 C   0  0  0  0  0  0  0  0  0  0  0  0
   -1.2332    0.0113   -0.2531 C   0  0  0  0  0  0  0  0  0  0  0  0
   -0.9213    0.2665    1.1740 C   0  0  0  0  0  0  0  0  0  0  0  0
   -0.4971   -1.5006    1.5029 C   0  0  0  0  0  0  0  0  0  0  0  0
    0.7912   -1.1495    0.9329 C   0  0  0  0  0  0  0  0  0  0  0  0
   -0.7373   -1.6212    0.1140 N   0  0  0  0  0  0  0  0  0  0  0  0
    0.6776    0.3504    1.2746 C   0  0  0  0  0  0  0  0  0  0  0  0
    1.5663    0.7924    0.0947 C   0  0  0  0  0  0  0  0  0  0  0  0
    0.3882   -1.4307   -1.2591 H   0  0  0  0  0  0  0  0  0  0  0  0
    1.7259   -0.2424   -1.7921 H   0  0  0  0  0  0  0  0  0  0  0  0
    0.5667    1.8149   -1.4525 H   0  0  0  0  0  0  0  0  0  0  0  0
   -0.8993    2.2695   -1.0359 H   0  0  0  0  0  0  0  0  0  0  0  0
   -2.2388    0.0960   -0.6104 H   0  0  0  0  0  0  0  0  0  0  0  0
   -1.7192    0.5472    1.8273 H   0  0  0  0  0  0  0  0  0  0  0  0
   -0.9085   -1.9721    2.3901 H   0  0  0  0  0  0  0  0  0  0  0  0
    1.6578   -1.1936   -0.0707 H   0  0  0  0  0  0  0  0  0  0  0  0
    1.3929    1.9143    0.0946 H   0  0  0  0  0  0  0  0  0  0  0  0
  5 16  1  0
  4 15  1  0
  4  5  1  0
  5  7  1  0
  5  6  1  0
  3  4  1  0
  4  8  1  0
  3 14  1  0
  3  7  1  0
  2  3  1  0
  1 11  1  0
  6  8  1  0
  8  9  1  0
  6  7  1  0
  6 17  1  0
  2 12  1  0
  1  2  1  0
  2 13  1  0
  1  9  1  0
  1 10  1  0
  9 18  1  0
M  END
$$$$

     RDKit          3D

 16 17  0  0  0  0  0  0  0  0999 V2000
   -1.3323   -3.0107   -0.9904 O   0  0  0  0  0  0  0  0  0  0  0  0
   -0.9604   -1.8842   -0.9374 C   0  0  0  0  0  0  0  0  0  0  0  0
   -1.3652   -0.7221   -1.5605 O   0  0  0  0  0  0  0  0  0  0  0  0
   -0.1184   -0.0104   -1.2108 C   0  0  0  0  0  0  0  0  0  0  0  0
   -0.4196    1.3311   -0.6125 C   0  0  0  0  0  0  0  0  0  0  0  0
    0.1286    1.6108    0.5946 C   0  0  0  0  0  0  0  0  0  0  0  0
    0.7820    0.5503    1.4290 C   0  0  0  0  0  0  0  0  0  0  0  0
    0.1425   -0.7363    1.1911 N   0  0  0  0  0  0  0  0  0  0  0  0
    0.2721   -1.1429   -0.2315 C   0  0  0  0  0  0  0  0  0  0  0  0
    0.6332    0.0679   -2.0453 H   0  0  0  0  0  0  0  0  0  0  0  0
   -0.8956    2.0914   -1.2366 H   0  0  0  0  0  0  0  0  0  0  0  0
    0.0748    2.6373    0.9949 H   0  0  0  0  0  0  0  0  0  0  0  0
    0.8236    0.7746    2.5364 H   0  0  0  0  0  0  0  0  0  0  0  0
    1.8416    0.5816    1.1033 H   0  0  0  0  0  0  0  0  0  0  0  0
   -0.8338   -0.5689    1.4981 H   0  0  0  0  0  0  0  0  0  0  0  0
    1.2269   -1.5694   -0.5224 H   0  0  0  0  0  0  0  0  0  0  0  0
  4 10  1  0
  9 16  1  0
  3  4  1  0
  4  9  1  0
  4  5  1  0
  2  3  1  0
  5 11  1  0
  2  9  1  0
  8  9  1  0
  1  2  2  0
  5  6  2  0
  7 13  1  0
  6  7  1  0
  6 12  1  0
  7  8  1  0
  8 15  1  0
  7 14  1  0
M  END
$$$$

     RDKit          3D

 14 14  0  0  0  0  0  0  0  0999 V2000
   -1.0993    2.4532    0.2947 O   0  0  0  0  0  0  0  0  0  0  0  0
   -0.9441    1.2988   -0.1074 C   0  0  0  0  0  0  0  0  0  0  0  0
   -0.3869    0.9588   -1.3404 N   0  0  0  0  0  0  0  0  0  0  0  0
    0.6286    0.0206   -1.3273 C   0  0  0  0  0  0  0  0  0  0  0  0
    1.5183    0.0454   -0.3200 C   0  0  0  0  0  0  0  0  0  0  0  0
    0.9856   -0.8514    0.7500 C   0  0  0  0  0  0  0  0  0  0  0  0
    1.7710   -1.5498    1.3893 O   0  0  0  0  0  0  0  0  0  0  0  0
   -0.5398   -0.8201    1.0332 C   0  0  0  0  0  0  0  0  0  0  0  0
   -1.4350    0.2266    0.5850 O   0  0  0  0  0  0  0  0  0  0  0  0
   -1.1368    0.6956   -1.9780 H   0  0  0  0  0  0  0  0  0  0  0  0
    0.4490   -0.8710   -1.9315 H   0  0  0  0  0  0  0  0  0  0  0  0
    1.7807    0.9829    0.1689 H   0  0  0  0  0  0  0  0  0  0  0  0
   -0.9440   -1.7695    0.6540 H   0  0  0  0  0  0  0  0  0  0  0  0
   -0.6475   -0.8201    2.1294 H   0  0  0  0  0  0  0  0  0  0  0  0
  8 13  1  0
  8 14  1  0
  6  8  1  0
  8  9  1  0
  6  7  2  0
  5  6  1  0
  5 12  1  0
  4  5  2  0
  3  4  1  0
  3 10  1  0
  2  3  1  0
  2  9  1  0
  4 11  1  0
  1  2  2  0
M  END
$$$$

     RDKit          3D

 18 19  0  0  0  0  0  0  0  0999 V2000
    1.9691    0.8847    0.6320 N   0  0  0  0  0  0  0  0  0  0  0  0
    1.0813    0.0898   -0.2704 C   0  0  0  0  0  0  0  0  0  0  0  0
    0.5864   -1.2327    0.4385 C   0  0  0  0  0  0  0  0  0  0  0  0
   -0.5594   -0.3751    1.0229 C   0  0  0  0  0  0  0  0  0  0  0  0
   -0.3487    0.4660   -0.1652 C   0  0  0  0  0  0  0  0  0  0  0  0
   -1.2218    0.6868   -1.3524 C   0  0  0  0  0  0  0  0  0  0  0  0
   -1.0037    1.7656   -0.3321 N   0  0  0  0  0  0  0  0  0  0  0  0
    0.1343   -2.3332   -0.4230 C   0  0  0  0  0  0  0  0  0  0  0  0
   -0.2920   -3.1754   -1.1063 N   0  0  0  0  0  0  0  0  0  0  0  0
    1.8774    1.8881    0.4264 H   0  0  0  0  0  0  0  0  0  0  0  0
    1.8103    0.7930    1.6338 H   0  0  0  0  0  0  0  0  0  0  0  0
    1.4460   -0.0084   -1.3092 H   0  0  0  0  0  0  0  0  0  0  0  0
    1.2864   -1.6164    1.1835 H   0  0  0  0  0  0  0  0  0  0  0  0
   -0.3329    0.1503    1.9966 H   0  0  0  0  0  0  0  0  0  0  0  0
   -1.5330   -0.8640    1.2071 H   0  0  0  0  0  0  0  0  0  0  0  0
   -0.8132    0.9260   -2.3280 H   0  0  0  0  0  0  0  0  0  0  0  0
   -2.1788    0.1449   -1.4176 H   0  0  0  0  0  0  0  0  0  0  0  0
   -1.9079    1.8100    0.1635 H   0  0  0  0  0  0  0  0  0  0  0  0
  7 18  1  0
  1 10  1  0
  6  7  1  0
  5  7  1  0
  6 17  1  0
  2 12  1  0
  5  6  1  0
  6 16  1  0
  1 11  1  0
  1  2  1  0
  2  5  1  0
  2  3  1  0
  4  5  1  0
  4 14  1  0
  3  4  1  0
  4 15  1  0
  3  8  1  0
  3 13  1  0
  8  9  3  0
M  END
$$$$

     RDKit          3D

 16 16  0  0  0  0  0  0  0  0999 V2000
   -2.6216   -0.9849    1.8419 O   0  0  0  0  0  0  0  0  0  0  0  0
   -1.6651   -1.1522    1.0758 C   0  0  0  0  0  0  0  0  0  0  0  0
   -0.2556   -0.9855    1.5553 C   0  0  0  0  0  0  0  0  0  0  0  0
    0.2501    0.3603    1.0073 C   0  0  0  0  0  0  0  0  0  0  0  0
    0.5560    0.4711   -0.4523 C   0  0  0  0  0  0  0  0  0  0  0  0
    1.8022    0.3601   -0.9175 N   0  0  0  0  0  0  0  0  0  0  0  0
    1.6865    0.7422   -2.1976 N   0  0  0  0  0  0  0  0  0  0  0  0
    0.4419    0.8967   -2.6773 N   0  0  0  0  0  0  0  0  0  0  0  0
   -0.2861    0.7702   -1.5574 C   0  0  0  0  0  0  0  0  0  0  0  0
   -1.7699   -1.3828   -0.0123 H   0  0  0  0  0  0  0  0  0  0  0  0
    0.3557   -1.8665    1.2801 H   0  0  0  0  0  0  0  0  0  0  0  0
   -0.2892   -0.9257    2.6658 H   0  0  0  0  0  0  0  0  0  0  0  0
   -0.4852    1.1036    1.1730 H   0  0  0  0  0  0  0  0  0  0  0  0
    1.1328    0.6463    1.5442 H   0  0  0  0  0  0  0  0  0  0  0  0
    2.5006    1.0218   -2.7476 H   0  0  0  0  0  0  0  0  0  0  0  0
   -1.3532    0.9254   -1.5816 H   0  0  0  0  0  0  0  0  0  0  0  0
  9 16  1  0
  8  9  2  0
  5  9  1  0
  4 13  1  0
  7  8  1  0
  4  5  1  0
  5  6  2  0
  4 14  1  0
  3  4  1  0
  6  7  1  0
  7 15  1  0
  3 12  1  0
  1  2  2  0
  2  3  1  0
  3 11  1  0
  2 10  1  0
M  END
$$$$

     RDKit          3D

 11 11  0  0  0  0  0  0  0  0999 V2000
    0.2618    1.7031    0.1005 O   0  0  0  0  0  0  0  0  0  0  0  0
    0.7996    0.5099   -0.1660 C   0  0  0  0  0  0  0  0  0  0  0  0
    0.2316   -0.6918    0.1585 C   0  0  0  0  0  0  0  0  0  0  0  0
   -0.8546   -1.1577    0.7453 O   0  0  0  0  0  0  0  0  0  0  0  0
   -1.8961   -0.3312    0.5167 C   0  0  0  0  0  0  0  0  0  0  0  0
   -2.9063   -0.6782   -0.1108 O   0  0  0  0  0  0  0  0  0  0  0  0
    1.0865   -1.6552   -0.3089 O   0  0  0  0  0  0  0  0  0  0  0  0
    2.1710   -1.0107   -0.9069 N   0  0  0  0  0  0  0  0  0  0  0  0
    1.9876    0.2951   -0.7873 N   0  0  0  0  0  0  0  0  0  0  0  0
    0.8830    2.3612   -0.2556 H   0  0  0  0  0  0  0  0  0  0  0  0
   -1.7640    0.6555    1.0146 H   0  0  0  0  0  0  0  0  0  0  0  0
  1  2  1  0
  1 10  1  0
  2  3  2  0
  2  9  1  0
  3  4  1  0
  3  7  1  0
  4  5  1  0
  5  6  2  0
  5 11  1  0
  7  8  1  0
  8  9  2  0
M  END
$$$$

     RDKit          3D

 21 22  0  0  0  0  0  0  0  0999 V2000
   -2.1173    1.9200   -0.3028 C   0  0  0  0  0  0  0  0  0  0  0  0
   -1.0998    0.6974    0.1384 C   0  0  0  0  0  0  0  0  0  0  0  0
   -0.0436    1.4194    0.7898 O   0  0  0  0  0  0  0  0  0  0  0  0
    1.2426    0.7933    1.0698 C   0  0  0  0  0  0  0  0  0  0  0  0
    2.0341    0.5526   -0.2232 C   0  0  0  0  0  0  0  0  0  0  0  0
    1.4622   -0.6301    0.4887 C   0  0  0  0  0  0  0  0  0  0  0  0
    0.1394   -1.4280    0.1732 C   0  0  0  0  0  0  0  0  0  0  0  0
   -0.0609   -2.4280   -0.8988 C   0  0  0  0  0  0  0  0  0  0  0  0
   -1.0412   -0.7632    0.6809 C   0  0  0  0  0  0  0  0  0  0  0  0
   -1.5644    2.4435   -1.1900 H   0  0  0  0  0  0  0  0  0  0  0  0
   -2.0472    2.5910    0.6019 H   0  0  0  0  0  0  0  0  0  0  0  0
   -3.1836    2.1497   -0.2983 H   0  0  0  0  0  0  0  0  0  0  0  0
   -1.0775    0.1706   -0.9211 H   0  0  0  0  0  0  0  0  0  0  0  0
    1.4945    0.8032    2.1069 H   0  0  0  0  0  0  0  0  0  0  0  0
    1.6252    0.9314   -1.1507 H   0  0  0  0  0  0  0  0  0  0  0  0
    2.8916    1.1987   -0.0032 H   0  0  0  0  0  0  0  0  0  0  0  0
    2.2504   -1.5145    0.6590 H   0  0  0  0  0  0  0  0  0  0  0  0
    0.6847   -2.1308   -1.7162 H   0  0  0  0  0  0  0  0  0  0  0  0
   -1.0865   -2.6091   -1.1301 H   0  0  0  0  0  0  0  0  0  0  0  0
    0.3687   -3.4780   -0.6671 H   0  0  0  0  0  0  0  0  0  0  0  0
   -0.8714   -0.6893    1.7930 H   0  0  0  0  0  0  0  0  0  0  0  0
  4 14  1  0
  5 15  1  0
  3  4  1  0
  4  5  1  0
  4  6  1  0
  2  3  1  0
  5 16  1  0
  5  6  1  0
  1 11  1  0
  1 10  1  0
  1  2  1  0
  1 12  1  0
  2 13  1  0
  2  9  1  0
  6 17  1  0
  6  7  1  0
  7  9  2  0
  9 21  1  0
  7  8  1  0
  8 18  1  0
  8 20  1  0
  8 19  1  0
M  END
$$$$

     RDKit          3D

 19 21  0  0  0  0  0  0  0  0999 V2000
   -1.3102    2.0186   -0.3561 C   0  0  0  0  0  0  0  0  0  0  0  0
   -1.3105    0.5085   -0.3022 C   0  0  0  0  0  0  0  0  0  0  0  0
   -0.6637   -0.1204   -1.4520 O   0  0  0  0  0  0  0  0  0  0  0  0
    0.3614   -0.5922   -0.6003 C   0  0  0  0  0  0  0  0  0  0  0  0
    1.3965    0.3491    0.0664 C   0  0  0  0  0  0  0  0  0  0  0  0
    0.9374   -0.5229    1.2302 C   0  0  0  0  0  0  0  0  0  0  0  0
    1.3149   -1.9063    0.9246 O   0  0  0  0  0  0  0  0  0  0  0  0
    0.8238   -2.0295   -0.4514 C   0  0  0  0  0  0  0  0  0  0  0  0
   -0.5282   -0.3659    0.7056 C   0  0  0  0  0  0  0  0  0  0  0  0
   -2.0493    2.4431    0.3445 H   0  0  0  0  0  0  0  0  0  0  0  0
   -1.5934    2.3742   -1.3535 H   0  0  0  0  0  0  0  0  0  0  0  0
   -0.3451    2.4857   -0.1156 H   0  0  0  0  0  0  0  0  0  0  0  0
   -2.3738    0.2011   -0.3132 H   0  0  0  0  0  0  0  0  0  0  0  0
    2.4283    0.2024   -0.2437 H   0  0  0  0  0  0  0  0  0  0  0  0
    1.2407    1.4165    0.1851 H   0  0  0  0  0  0  0  0  0  0  0  0
    1.1515   -0.1963    2.2528 H   0  0  0  0  0  0  0  0  0  0  0  0
    1.6544   -2.3000   -1.0965 H   0  0  0  0  0  0  0  0  0  0  0  0
    0.0148   -2.7716   -0.4725 H   0  0  0  0  0  0  0  0  0  0  0  0
   -1.1495   -1.1942    1.0479 H   0  0  0  0  0  0  0  0  0  0  0  0
  1 11  1  0
  2  3  1  0
  3  4  1  0
  1 10  1  0
  1  2  1  0
  1 12  1  0
  2 13  1  0
  8 17  1  0
  2  9  1  0
  8 18  1  0
  4  8  1  0
  4  5  1  0
  4  9  1  0
  7  8  1  0
  5 15  1  0
  5 14  1  0
  5  6  1  0
  9 19  1  0
  6  9  1  0
  6  7  1  0
  6 16  1  0
M  END
$$$$

     RDKit          3D

 23 23  0  0  0  0  0  0  0  0999 V2000
   -1.4366    1.3167   -1.5512 C   0  0  0  0  0  0  0  0  0  0  0  0
   -0.2146    0.3080   -1.7338 C   0  0  0  0  0  0  0  0  0  0  0  0
    0.7640    1.0632   -1.1085 O   0  0  0  0  0  0  0  0  0  0  0  0
    1.5725    0.3324   -0.2436 C   0  0  0  0  0  0  0  0  0  0  0  0
    0.8552   -0.9671    0.1360 C   0  0  0  0  0  0  0  0  0  0  0  0
    0.3830   -1.0425    2.0339 C   0  0  0  0  0  0  0  0  0  0  0  0
    1.6045   -2.0956   -0.1071 O   0  0  0  0  0  0  0  0  0  0  0  0
   -0.5363   -0.6128   -0.6399 C   0  0  0  0  0  0  0  0  0  0  0  0
   -0.8474    0.3039    0.7079 C   0  0  0  0  0  0  0  0  0  0  0  0
   -1.3672    2.1510   -0.8193 H   0  0  0  0  0  0  0  0  0  0  0  0
   -2.4316    0.8152   -1.6394 H   0  0  0  0  0  0  0  0  0  0  0  0
   -1.2346    1.7659   -2.5198 H   0  0  0  0  0  0  0  0  0  0  0  0
   -0.3077   -0.4317   -2.6135 H   0  0  0  0  0  0  0  0  0  0  0  0
    2.0544    0.7368    0.6542 H   0  0  0  0  0  0  0  0  0  0  0  0
    2.5721    0.1203   -0.7932 H   0  0  0  0  0  0  0  0  0  0  0  0
   -1.0915   -0.6900    2.4187 H   0  0  0  0  0  0  0  0  0  0  0  0
    0.3416    0.0395    2.5351 H   0  0  0  0  0  0  0  0  0  0  0  0
    1.6345   -0.4202    1.9962 H   0  0  0  0  0  0  0  0  0  0  0  0
    1.8629   -2.0982    1.0883 H   0  0  0  0  0  0  0  0  0  0  0  0
   -1.4002   -1.8040   -0.5894 H   0  0  0  0  0  0  0  0  0  0  0  0
   -0.0405    1.0252    1.1736 H   0  0  0  0  0  0  0  0  0  0  0  0
   -1.0231   -0.7899    0.9662 H   0  0  0  0  0  0  0  0  0  0  0  0
   -1.7134    0.9737    0.6486 H   0  0  0  0  0  0  0  0  0  0  0  0
  4 15  1  0
  1 11  1  0
  3  4  1  0
  2  3  1  0
  4 14  1  0
  4  5  1  0
  1 10  1  0
  1  2  1  0
  1 12  1  0
  7 19  1  0
  2 13  1  0
  2  8  1  0
  5  7  1  0
  5  8  1  0
  5  6  1  0
  6 16  1  0
  8 20  1  0
  8  9  1  0
  6 18  1  0
  6 17  1  0
  9 21  1  0
  9 22  1  0
  9 23  1  0
M  END
$$$$

     RDKit          3D

 18 18  0  0  0  0  0  0  0  0999 V2000
    0.2195    2.7652    0.4083 C   0  0  0  0  0  0  0  0  0  0  0  0
   -0.1028    1.3651    0.6243 N   0  0  0  0  0  0  0  0  0  0  0  0
    0.9905    0.5297    0.1501 C   0  0  0  0  0  0  0  0  0  0  0  0
    1.1556   -0.6864    1.0271 C   0  0  0  0  0  0  0  0  0  0  0  0
    0.1954   -1.6918    0.4443 C   0  0  0  0  0  0  0  0  0  0  0  0
    0.0314   -1.2280   -1.0126 C   0  0  0  0  0  0  0  0  0  0  0  0
    0.7088    0.0235   -1.1621 O   0  0  0  0  0  0  0  0  0  0  0  0
   -1.3940   -1.0613   -1.3425 C   0  0  0  0  0  0  0  0  0  0  0  0
   -2.5747   -0.8728   -1.5037 C   0  0  0  0  0  0  0  0  0  0  0  0
    0.7632    2.9239   -0.5334 H   0  0  0  0  0  0  0  0  0  0  0  0
   -0.7164    3.3325    0.3816 H   0  0  0  0  0  0  0  0  0  0  0  0
    0.8133    3.1692    1.2474 H   0  0  0  0  0  0  0  0  0  0  0  0
    2.1952   -1.0351    0.9412 H   0  0  0  0  0  0  0  0  0  0  0  0
    0.9691   -0.4960    2.0958 H   0  0  0  0  0  0  0  0  0  0  0  0
   -0.7494   -1.7107    1.0058 H   0  0  0  0  0  0  0  0  0  0  0  0
    0.6078   -2.7077    0.4966 H   0  0  0  0  0  0  0  0  0  0  0  0
    0.5118   -1.9467   -1.6947 H   0  0  0  0  0  0  0  0  0  0  0  0
   -3.6243   -0.6725   -1.5735 H   0  0  0  0  0  0  0  0  0  0  0  0
  9 18  1  0
  8  9  3  0
  6  8  1  0
  4 13  1  0
  1 10  1  0
  1 11  1  0
  6  7  1  0
  6 17  1  0
  5  6  1  0
  3  7  1  0
  1  2  1  0
  1 12  1  0
  2  3  1  0
  3  4  1  0
  4  5  1  0
  4 14  1  0
  5 15  1  0
  5 16  1  0
M  END
$$$$

     RDKit          3D

 17 17  0  0  0  0  0  0  0  0999 V2000
    2.3754    0.3209   -0.0145 C   0  0  0  0  0  0  0  0  0  0  0  0
    1.7236   -0.8389    0.5193 O   0  0  0  0  0  0  0  0  0  0  0  0
    0.2461   -0.7538    0.2644 C   0  0  0  0  0  0  0  0  0  0  0  0
   -0.3565   -2.0277   -0.1486 C   0  0  0  0  0  0  0  0  0  0  0  0
   -0.2776   -0.9406   -1.2310 C   0  0  0  0  0  0  0  0  0  0  0  0
   -0.4097    0.3308    0.9067 C   0  0  0  0  0  0  0  0  0  0  0  0
   -1.1577    1.2819    1.0175 C   0  0  0  0  0  0  0  0  0  0  0  0
   -2.0434    2.2922    0.8904 C   0  0  0  0  0  0  0  0  0  0  0  0
   -2.8634    2.5467    1.7119 O   0  0  0  0  0  0  0  0  0  0  0  0
    2.6679    0.1268   -1.0970 H   0  0  0  0  0  0  0  0  0  0  0  0
    2.2680    1.2648    0.6912 H   0  0  0  0  0  0  0  0  0  0  0  0
    3.3811    0.1917    0.3570 H   0  0  0  0  0  0  0  0  0  0  0  0
    0.0639   -2.8574   -0.6799 H   0  0  0  0  0  0  0  0  0  0  0  0
   -1.3830   -2.4718    0.0596 H   0  0  0  0  0  0  0  0  0  0  0  0
   -0.7338    0.0304   -1.4077 H   0  0  0  0  0  0  0  0  0  0  0  0
   -1.3076   -1.1612   -1.6953 H   0  0  0  0  0  0  0  0  0  0  0  0
   -2.1932    2.6651   -0.1440 H   0  0  0  0  0  0  0  0  0  0  0  0
  8  9  2  0
  8 17  1  0
  7  8  1  0
  6  7  3  0
  3  6  1  0
  5 16  1  0
  4 13  1  0
  3  5  1  0
  3  4  1  0
  2  3  1  0
  4  5  1  0
  5 15  1  0
  4 14  1  0
  1 11  1  0
  1  2  1  0
  1 10  1  0
  1 12  1  0
M  END
$$$$

     RDKit          3D

 21 20  0  0  0  0  0  0  0  0999 V2000
   -0.1446    2.7024   -0.2444 C   0  0  0  0  0  0  0  0  0  0  0  0
   -0.2872    1.1857   -0.3403 C   0  0  0  0  0  0  0  0  0  0  0  0
    1.0666    0.4744   -0.2074 C   0  0  0  0  0  0  0  0  0  0  0  0
    1.5665    0.6472    1.1168 O   0  0  0  0  0  0  0  0  0  0  0  0
    0.9931   -1.0271   -0.4915 C   0  0  0  0  0  0  0  0  0  0  0  0
    0.1287   -1.8108    0.5044 C   0  0  0  0  0  0  0  0  0  0  0  0
   -0.9246   -2.4813   -0.2078 O   0  0  0  0  0  0  0  0  0  0  0  0
   -2.1913   -2.2374    0.1906 C   0  0  0  0  0  0  0  0  0  0  0  0
   -3.1669   -2.8574   -0.2242 O   0  0  0  0  0  0  0  0  0  0  0  0
    0.4131    3.0915   -1.0993 H   0  0  0  0  0  0  0  0  0  0  0  0
   -1.1334    3.1857   -0.2489 H   0  0  0  0  0  0  0  0  0  0  0  0
    0.3704    3.0001    0.6759 H   0  0  0  0  0  0  0  0  0  0  0  0
   -0.7513    0.9271   -1.3018 H   0  0  0  0  0  0  0  0  0  0  0  0
   -0.9702    0.8642    0.4571 H   0  0  0  0  0  0  0  0  0  0  0  0
    1.7800    0.9174   -0.9154 H   0  0  0  0  0  0  0  0  0  0  0  0
    2.3532    1.2188    1.0575 H   0  0  0  0  0  0  0  0  0  0  0  0
    2.0206   -1.4147   -0.4101 H   0  0  0  0  0  0  0  0  0  0  0  0
    0.6559   -1.2062   -1.5195 H   0  0  0  0  0  0  0  0  0  0  0  0
    0.7385   -2.5909    0.9725 H   0  0  0  0  0  0  0  0  0  0  0  0
   -0.2487   -1.1909    1.3267 H   0  0  0  0  0  0  0  0  0  0  0  0
   -2.2685   -1.3978    0.9090 H   0  0  0  0  0  0  0  0  0  0  0  0
  6 19  1  0
  8  9  2  0
  8 21  1  0
  7  8  1  0
  6  7  1  0
  6 20  1  0
  5  6  1  0
  3 15  1  0
  5 18  1  0
  3  5  1  0
  5 17  1  0
  3  4  1  0
  4 16  1  0
  2  3  1  0
  1 11  1  0
  2 14  1  0
  1  2  1  0
  2 13  1  0
  1 10  1  0
  1 12  1  0
M  END
$$$$

     RDKit          3D

 17 18  0  0  0  0  0  0  0  0999 V2000
    0.4291    2.4401    0.0714 O   0  0  0  0  0  0  0  0  0  0  0  0
    0.2902    1.3062   -0.6430 C   0  0  0  0  0  0  0  0  0  0  0  0
   -0.6657    0.3826    0.0176 C   0  0  0  0  0  0  0  0  0  0  0  0
   -0.4705   -1.6472   -0.4658 C   0  0  0  0  0  0  0  0  0  0  0  0
    0.0945   -0.6308    1.5783 N   0  0  0  0  0  0  0  0  0  0  0  0
    1.3793    0.3921   -0.4806 C   0  0  0  0  0  0  0  0  0  0  0  0
    0.8754   -0.9100    0.1811 C   0  0  0  0  0  0  0  0  0  0  0  0
    1.2960   -0.7357   -1.4217 O   0  0  0  0  0  0  0  0  0  0  0  0
    0.3374    3.1603   -0.5318 H   0  0  0  0  0  0  0  0  0  0  0  0
   -0.2244    1.4853   -1.5306 H   0  0  0  0  0  0  0  0  0  0  0  0
   -1.4886    0.9705    0.6144 H   0  0  0  0  0  0  0  0  0  0  0  0
   -0.3539   -2.6768    0.0603 H   0  0  0  0  0  0  0  0  0  0  0  0
   -1.5657   -1.9814   -0.6548 H   0  0  0  0  0  0  0  0  0  0  0  0
   -0.7171   -0.2426    2.1633 H   0  0  0  0  0  0  0  0  0  0  0  0
    2.3428    0.7718   -0.2848 H   0  0  0  0  0  0  0  0  0  0  0  0
   -0.8117   -0.9129    0.6084 H   0  0  0  0  0  0  0  0  0  0  0  0
   -0.7473   -1.1716    0.7180 H   0  0  0  0  0  0  0  0  0  0  0  0
  4 12  1  0
  5 14  1  0
  4  5  1  0
  3  5  1  0
  4 13  1  0
  3  4  1  0
  3 11  1  0
  2  3  1  0
  2 10  1  0
  1  2  1  0
  2  6  1  0
  1  9  1  0
  6  8  1  0
  6 15  1  0
  6  7  1  0
  7  8  1  0
  7 17  1  0
  7 16  1  0
M  END
$$$$

     RDKit          3D

 22 23  0  0  0  0  0  0  0  0999 V2000
   -0.6670    0.7570   -1.7423 C   0  0  0  0  0  0  0  0  0  0  0  0
    0.2913    1.0556   -0.5436 C   0  0  0  0  0  0  0  0  0  0  0  0
   -0.0394    2.3362    0.1691 C   0  0  0  0  0  0  0  0  0  0  0  0
    1.6403    0.4387   -0.8172 C   0  0  0  0  0  0  0  0  0  0  0  0
    0.7728    0.0308    0.3766 N   0  0  0  0  0  0  0  0  0  0  0  0
   -0.4000   -0.8534    0.5429 C   0  0  0  0  0  0  0  0  0  0  0  0
   -0.2547   -1.4055    2.0606 C   0  0  0  0  0  0  0  0  0  0  0  0
   -0.6991   -2.7165    1.5431 O   0  0  0  0  0  0  0  0  0  0  0  0
   -0.1461   -2.3610    0.1841 C   0  0  0  0  0  0  0  0  0  0  0  0
   -0.3365    1.3802   -2.5564 H   0  0  0  0  0  0  0  0  0  0  0  0
   -1.6801    0.8706   -1.4507 H   0  0  0  0  0  0  0  0  0  0  0  0
   -0.5037   -0.2911   -2.0379 H   0  0  0  0  0  0  0  0  0  0  0  0
    0.4349    2.4127    1.2111 H   0  0  0  0  0  0  0  0  0  0  0  0
    0.2197    3.2051   -0.4411 H   0  0  0  0  0  0  0  0  0  0  0  0
   -1.1701    2.3375    0.3436 H   0  0  0  0  0  0  0  0  0  0  0  0
    1.8035   -0.2812   -1.5226 H   0  0  0  0  0  0  0  0  0  0  0  0
    2.4264    1.1212   -0.5252 H   0  0  0  0  0  0  0  0  0  0  0  0
   -1.4460   -0.4533    0.3566 H   0  0  0  0  0  0  0  0  0  0  0  0
   -1.0227   -0.7848    2.6502 H   0  0  0  0  0  0  0  0  0  0  0  0
    0.7061   -1.3609    2.6590 H   0  0  0  0  0  0  0  0  0  0  0  0
   -0.8070   -2.7498   -0.5756 H   0  0  0  0  0  0  0  0  0  0  0  0
    0.8772   -2.6880    0.1157 H   0  0  0  0  0  0  0  0  0  0  0  0
  3 13  1  0
  1 11  1  0
  4 16  1  0
  3 14  1  0
  2  3  1  0
  3 15  1  0
  1 10  1  0
  1  2  1  0
  1 12  1  0
  4 17  1  0
  2  4  1  0
  4  5  1  0
  2  5  1  0
  5  6  1  0
  6 18  1  0
  6  9  1  0
  6  7  1  0
  9 21  1  0
  9 22  1  0
  8  9  1  0
  7 20  1  0
  7 19  1  0
  7  8  1  0
M  END
$$$$

     RDKit          3D

 19 21  0  0  0  0  0  0  0  0999 V2000
    1.5497   -0.4135   -0.1918 C   0  0  0  0  0  0  0  0  0  0  0  0
    1.2532   -0.4133    1.3999 C   0  0  0  0  0  0  0  0  0  0  0  0
   -0.2439   -0.0724    1.2879 C   0  0  0  0  0  0  0  0  0  0  0  0
    0.1796    1.3553    0.7459 O   0  0  0  0  0  0  0  0  0  0  0  0
   -0.9132    1.4214   -0.1686 C   0  0  0  0  0  0  0  0  0  0  0  0
   -0.9929    0.1763   -1.2086 C   0  0  0  0  0  0  0  0  0  0  0  0
    0.3896   -0.6636   -1.2467 C   0  0  0  0  0  0  0  0  0  0  0  0
   -2.2428   -0.3799   -0.2381 O   0  0  0  0  0  0  0  0  0  0  0  0
   -1.6460    0.4480    0.7547 C   0  0  0  0  0  0  0  0  0  0  0  0
    2.3008   -1.0721   -0.3824 H   0  0  0  0  0  0  0  0  0  0  0  0
    1.9580    0.5538   -0.4195 H   0  0  0  0  0  0  0  0  0  0  0  0
    1.4246   -1.3342    1.9474 H   0  0  0  0  0  0  0  0  0  0  0  0
    1.9728    0.3374    1.7074 H   0  0  0  0  0  0  0  0  0  0  0  0
   -0.2995   -1.1013    0.7378 H   0  0  0  0  0  0  0  0  0  0  0  0
   -1.5653    2.2577   -0.3899 H   0  0  0  0  0  0  0  0  0  0  0  0
   -1.5674    0.0750   -2.1147 H   0  0  0  0  0  0  0  0  0  0  0  0
    0.0228   -1.7765   -1.3496 H   0  0  0  0  0  0  0  0  0  0  0  0
    0.8050   -0.3496   -2.2214 H   0  0  0  0  0  0  0  0  0  0  0  0
   -2.3850    0.9513    1.3502 H   0  0  0  0  0  0  0  0  0  0  0  0
  1 11  1  0
  2 12  1  0
  7 18  1  0
  2 13  1  0
  1  2  1  0
  1  7  1  0
  1 10  1  0
  2  3  1  0
  7 17  1  0
  6  7  1  0
  6  8  1  0
  8  9  1  0
  6 16  1  0
  5  6  1  0
  3 14  1  0
  3  9  1  0
  3  4  1  0
  9 19  1  0
  5  9  1  0
  4  5  1  0
  5 15  1  0
M  END
$$$$

     RDKit          3D

 15 16  0  0  0  0  0  0  0  0999 V2000
    0.4280   -2.1337    1.7559 O   0  0  0  0  0  0  0  0  0  0  0  0
    0.0627   -1.2434    1.0017 C   0  0  0  0  0  0  0  0  0  0  0  0
   -0.5800    0.1129    1.5960 C   0  0  0  0  0  0  0  0  0  0  0  0
   -0.9754    0.9043    0.3588 C   0  0  0  0  0  0  0  0  0  0  0  0
    0.4037    0.3512   -0.3247 C   0  0  0  0  0  0  0  0  0  0  0  0
    0.6549   -0.9867   -0.2620 C   0  0  0  0  0  0  0  0  0  0  0  0
    0.4828   -0.7498   -1.8077 C   0  0  0  0  0  0  0  0  0  0  0  0
    1.5045    0.0880   -2.2580 N   0  0  0  0  0  0  0  0  0  0  0  0
    1.2927    0.9769   -1.1591 N   0  0  0  0  0  0  0  0  0  0  0  0
    0.0860    0.6428    2.2686 H   0  0  0  0  0  0  0  0  0  0  0  0
   -1.2648    0.0989    2.4692 H   0  0  0  0  0  0  0  0  0  0  0  0
   -1.8271    0.1956    0.5535 H   0  0  0  0  0  0  0  0  0  0  0  0
   -1.3925    0.6331   -0.7667 H   0  0  0  0  0  0  0  0  0  0  0  0
   -0.5465   -0.8783   -2.2829 H   0  0  0  0  0  0  0  0  0  0  0  0
    1.6711    1.9881   -1.1427 H   0  0  0  0  0  0  0  0  0  0  0  0
  4 12  1  0
  3 10  1  0
  7 14  1  0
  7  8  2  0
  8  9  1  0
  6  7  1  0
  9 15  1  0
  5  9  1  0
  5  6  2  0
  2  6  1  0
  1  2  2  0
  4  5  1  0
  2  3  1  0
  3  4  1  0
  4 13  1  0
  3 11  1  0
M  END
$$$$

     RDKit          3D

 15 15  0  0  0  0  0  0  0  0999 V2000
   -0.4388    1.7476    0.8736 C   0  0  0  0  0  0  0  0  0  0  0  0
    0.0514    0.4243    0.4083 C   0  0  0  0  0  0  0  0  0  0  0  0
   -0.5677   -0.7408    0.0219 C   0  0  0  0  0  0  0  0  0  0  0  0
   -1.8775   -0.9843    0.0908 N   0  0  0  0  0  0  0  0  0  0  0  0
    0.2344   -1.5567   -0.6895 N   0  0  0  0  0  0  0  0  0  0  0  0
    1.3682   -0.8914   -0.7416 C   0  0  0  0  0  0  0  0  0  0  0  0
    2.3053   -1.1614   -1.6314 O   0  0  0  0  0  0  0  0  0  0  0  0
    1.3812    0.1970    0.0653 N   0  0  0  0  0  0  0  0  0  0  0  0
    0.3745    2.4417    1.1062 H   0  0  0  0  0  0  0  0  0  0  0  0
   -1.0616    2.1850    0.0760 H   0  0  0  0  0  0  0  0  0  0  0  0
   -1.1011    1.7356    1.7657 H   0  0  0  0  0  0  0  0  0  0  0  0
   -2.4349   -0.4856    0.7733 H   0  0  0  0  0  0  0  0  0  0  0  0
   -2.1611   -1.9589   -0.0659 H   0  0  0  0  0  0  0  0  0  0  0  0
    1.8154   -1.8377   -2.1710 H   0  0  0  0  0  0  0  0  0  0  0  0
    2.1123    0.8854    0.1184 H   0  0  0  0  0  0  0  0  0  0  0  0
  4 13  1  0
  4 12  1  0
  3  4  1  0
  3  5  1  0
  2  3  2  0
  1 10  1  0
  5  6  2  0
  1  2  1  0
  2  8  1  0
  1 11  1  0
  1  9  1  0
  6  8  1  0
  6  7  1  0
  7 14  1  0
  8 15  1  0
M  END
$$$$

     RDKit          3D

 16 16  0  0  0  0  0  0  0  0999 V2000
    2.3672    1.8305   -0.1535 C   0  0  0  0  0  0  0  0  0  0  0  0
    2.0341    0.4820    0.1927 O   0  0  0  0  0  0  0  0  0  0  0  0
    0.7501    0.0835    0.1398 C   0  0  0  0  0  0  0  0  0  0  0  0
    0.3635   -1.0731    0.5859 N   0  0  0  0  0  0  0  0  0  0  0  0
   -0.9783   -1.0766    0.2995 N   0  0  0  0  0  0  0  0  0  0  0  0
   -1.8113   -2.2305    0.5194 C   0  0  0  0  0  0  0  0  0  0  0  0
   -1.3359    0.0934   -0.3754 C   0  0  0  0  0  0  0  0  0  0  0  0
   -2.4091    0.3973   -0.8697 O   0  0  0  0  0  0  0  0  0  0  0  0
   -0.2074    0.8513   -0.4091 N   0  0  0  0  0  0  0  0  0  0  0  0
    2.0986    2.0342   -1.1849 H   0  0  0  0  0  0  0  0  0  0  0  0
    3.4498    1.9329   -0.0585 H   0  0  0  0  0  0  0  0  0  0  0  0
    1.8859    2.5280    0.5330 H   0  0  0  0  0  0  0  0  0  0  0  0
   -2.3328   -2.4824   -0.4068 H   0  0  0  0  0  0  0  0  0  0  0  0
   -2.5649   -1.9752    1.2795 H   0  0  0  0  0  0  0  0  0  0  0  0
   -1.2016   -3.0723    0.8655 H   0  0  0  0  0  0  0  0  0  0  0  0
   -0.1080    1.6769   -0.9574 H   0  0  0  0  0  0  0  0  0  0  0  0
  6 13  1  0
  6 15  1  0
  6 14  1  0
  5  6  1  0
  7  8  2  0
  5  7  1  0
  4  5  1  0
  7  9  1  0
  3  4  2  0
  3  9  1  0
  9 16  1  0
  2  3  1  0
  1 11  1  0
  1  2  1  0
  1 10  1  0
  1 12  1  0
M  END
$$$$

     RDKit          3D

 18 20  0  0  0  0  0  0  0  0999 V2000
    1.2406    1.8734    1.3943 C   0  0  0  0  0  0  0  0  0  0  0  0
    1.2033    0.4323    1.3971 O   0  0  0  0  0  0  0  0  0  0  0  0
    0.2463   -0.2935    0.4155 C   0  0  0  0  0  0  0  0  0  0  0  0
   -0.1101    0.5486   -0.9596 C   0  0  0  0  0  0  0  0  0  0  0  0
   -0.0565   -0.6824   -1.7041 N   0  0  0  0  0  0  0  0  0  0  0  0
   -0.6247   -1.8643   -1.1197 C   0  0  0  0  0  0  0  0  0  0  0  0
   -1.5824   -1.6735    0.0031 C   0  0  0  0  0  0  0  0  0  0  0  0
   -1.1173   -0.7475    0.9459 C   0  0  0  0  0  0  0  0  0  0  0  0
    0.7532   -1.2553   -0.5700 C   0  0  0  0  0  0  0  0  0  0  0  0
    2.0026    2.3381    0.7568 H   0  0  0  0  0  0  0  0  0  0  0  0
    0.3469    2.3000    0.9830 H   0  0  0  0  0  0  0  0  0  0  0  0
    1.4948    2.3948    2.3049 H   0  0  0  0  0  0  0  0  0  0  0  0
   -1.1488    0.8954   -1.0794 H   0  0  0  0  0  0  0  0  0  0  0  0
    0.6438    1.2822   -1.4692 H   0  0  0  0  0  0  0  0  0  0  0  0
   -0.5887   -2.7564   -1.6558 H   0  0  0  0  0  0  0  0  0  0  0  0
   -2.6770   -1.5920   -0.2092 H   0  0  0  0  0  0  0  0  0  0  0  0
   -1.7866   -0.1430    1.5818 H   0  0  0  0  0  0  0  0  0  0  0  0
    1.7603   -1.0570   -1.0152 H   0  0  0  0  0  0  0  0  0  0  0  0
  7 16  1  0
  8 17  1  0
  7  8  2  0
  6  7  1  0
  3  8  1  0
  1 11  1  0
  6 15  1  0
  6  9  1  0
  5  6  1  0
  2  3  1  0
  1  2  1  0
  3  9  1  0
  3  4  1  0
  9 18  1  0
  5  9  1  0
  1 10  1  0
  1 12  1  0
  4  5  1  0
  4 14  1  0
  4 13  1  0
M  END
$$$$

     RDKit          3D

 16 16  0  0  0  0  0  0  0  0999 V2000
    1.2303    1.8539   -0.3754 O   0  0  0  0  0  0  0  0  0  0  0  0
    0.5960    0.6229    0.0306 C   0  0  0  0  0  0  0  0  0  0  0  0
   -0.6078    0.8721    1.0399 C   0  0  0  0  0  0  0  0  0  0  0  0
   -1.1823   -0.5279    0.4674 C   0  0  0  0  0  0  0  0  0  0  0  0
   -0.5233   -0.0136   -0.8923 C   0  0  0  0  0  0  0  0  0  0  0  0
   -0.4973   -1.1805   -1.8047 C   0  0  0  0  0  0  0  0  0  0  0  0
   -0.7193   -1.8370   -2.7942 N   0  0  0  0  0  0  0  0  0  0  0  0
    1.5864   -0.3517    0.3918 C   0  0  0  0  0  0  0  0  0  0  0  0
    2.4345   -1.1030    0.7745 C   0  0  0  0  0  0  0  0  0  0  0  0
    0.5748    2.1778   -1.0345 H   0  0  0  0  0  0  0  0  0  0  0  0
   -1.4824    1.5631    0.7123 H   0  0  0  0  0  0  0  0  0  0  0  0
   -0.4594    1.0546    2.1369 H   0  0  0  0  0  0  0  0  0  0  0  0
   -0.7404   -1.3933    0.9799 H   0  0  0  0  0  0  0  0  0  0  0  0
   -2.2463   -0.8273    0.4635 H   0  0  0  0  0  0  0  0  0  0  0  0
   -1.2220    0.7148   -1.3814 H   0  0  0  0  0  0  0  0  0  0  0  0
    3.2584   -1.6250    1.2857 H   0  0  0  0  0  0  0  0  0  0  0  0
  9 16  1  0
  8  9  3  0
  6  7  3  0
  2  8  1  0
  1 10  1  0
  5  6  1  0
  5 15  1  0
  2  5  1  0
  4  5  1  0
  1  2  1  0
  2  3  1  0
  3 11  1  0
  3  4  1  0
  3 12  1  0
  4 14  1  0
  4 13  1  0
M  END
$$$$

     RDKit          3D

 16 17  0  0  0  0  0  0  0  0999 V2000
   -0.7260    1.5773   -0.1800 C   0  0  0  0  0  0  0  0  0  0  0  0
    0.2822    0.4623   -0.4348 C   0  0  0  0  0  0  0  0  0  0  0  0
    0.1734   -0.5309   -1.5619 C   0  0  0  0  0  0  0  0  0  0  0  0
    0.6719   -1.6163   -0.5313 C   0  0  0  0  0  0  0  0  0  0  0  0
    0.8720   -2.8498   -0.6222 O   0  0  0  0  0  0  0  0  0  0  0  0
    0.7298   -0.5673    0.5726 C   0  0  0  0  0  0  0  0  0  0  0  0
    1.5326    0.6213    0.2931 N   0  0  0  0  0  0  0  0  0  0  0  0
   -0.1299   -0.6627    1.7537 C   0  0  0  0  0  0  0  0  0  0  0  0
   -0.9394   -0.5520    2.6845 C   0  0  0  0  0  0  0  0  0  0  0  0
   -0.7933    1.6349    0.8968 H   0  0  0  0  0  0  0  0  0  0  0  0
   -0.2678    2.6149   -0.4403 H   0  0  0  0  0  0  0  0  0  0  0  0
   -1.7929    1.4246   -0.4783 H   0  0  0  0  0  0  0  0  0  0  0  0
   -0.8348   -0.7362   -1.9329 H   0  0  0  0  0  0  0  0  0  0  0  0
    0.8271   -0.3516   -2.4622 H   0  0  0  0  0  0  0  0  0  0  0  0
    2.3286    0.4288   -0.3693 H   0  0  0  0  0  0  0  0  0  0  0  0
   -1.9336   -0.8972    2.8125 H   0  0  0  0  0  0  0  0  0  0  0  0
  3 14  1  0
  1 11  1  0
  7 15  1  0
  2  7  1  0
  6  7  1  0
  2  3  1  0
  3 13  1  0
  3  4  1  0
  1  2  1  0
  1 10  1  0
  1 12  1  0
  2  6  1  0
  4  6  1  0
  4  5  2  0
  6  8  1  0
  8  9  3  0
  9 16  1  0
M  END
$$$$

     RDKit          3D

 18 18  0  0  0  0  0  0  0  0999 V2000
    1.1498    1.4099    2.1490 O   0  0  0  0  0  0  0  0  0  0  0  0
    1.5518    0.5553    1.0067 C   0  0  0  0  0  0  0  0  0  0  0  0
    0.4572    0.7977   -0.0130 C   0  0  0  0  0  0  0  0  0  0  0  0
   -0.0546   -0.3011   -0.8768 C   0  0  0  0  0  0  0  0  0  0  0  0
    0.5225   -0.2241   -2.1902 O   0  0  0  0  0  0  0  0  0  0  0  0
   -0.6276   -1.7423   -0.9587 C   0  0  0  0  0  0  0  0  0  0  0  0
   -1.3168   -0.6947   -0.2732 C   0  0  0  0  0  0  0  0  0  0  0  0
   -2.2660    0.4913   -0.2269 C   0  0  0  0  0  0  0  0  0  0  0  0
   -2.4941    1.5901   -0.0180 N   0  0  0  0  0  0  0  0  0  0  0  0
    0.9091    0.7092    2.7945 H   0  0  0  0  0  0  0  0  0  0  0  0
    1.6155   -0.6772    1.3582 H   0  0  0  0  0  0  0  0  0  0  0  0
    2.5527    0.9744    0.6955 H   0  0  0  0  0  0  0  0  0  0  0  0
   -0.3782    1.0022    0.7537 H   0  0  0  0  0  0  0  0  0  0  0  0
    0.4272    1.5908   -0.7312 H   0  0  0  0  0  0  0  0  0  0  0  0
   -0.1052    0.2756   -2.8661 H   0  0  0  0  0  0  0  0  0  0  0  0
   -0.9912   -2.6907   -0.4820 H   0  0  0  0  0  0  0  0  0  0  0  0
    0.4642   -2.0939   -0.8641 H   0  0  0  0  0  0  0  0  0  0  0  0
   -1.4162   -0.9725    0.7428 H   0  0  0  0  0  0  0  0  0  0  0  0
  3 14  1  0
  5 15  1  0
  4  5  1  0
  1 10  1  0
  7 18  1  0
  2 11  1  0
  3  4  1  0
  2  3  1  0
  3 13  1  0
  4  7  1  0
  4  6  1  0
  7  8  1  0
  6  7  1  0
  8  9  3  0
  1  2  1  0
  2 12  1  0
  6 16  1  0
  6 17  1  0
M  END
$$$$

     RDKit          3D

 17 17  0  0  0  0  0  0  0  0999 V2000
   -1.2303    0.4944   -1.2009 C   0  0  0  0  0  0  0  0  0  0  0  0
   -0.1010    0.2793   -0.2429 C   0  0  0  0  0  0  0  0  0  0  0  0
    0.4501    1.6003    0.3027 C   0  0  0  0  0  0  0  0  0  0  0  0
    0.8574   -0.9075   -0.3953 C   0  0  0  0  0  0  0  0  0  0  0  0
   -0.1959   -0.8601    0.7215 C   0  0  0  0  0  0  0  0  0  0  0  0
    0.6584   -0.5216    2.1541 O   0  0  0  0  0  0  0  0  0  0  0  0
   -0.9167   -2.1556    0.6934 C   0  0  0  0  0  0  0  0  0  0  0  0
   -0.9302   -3.1815    0.1658 N   0  0  0  0  0  0  0  0  0  0  0  0
   -0.9270    0.9333   -2.1495 H   0  0  0  0  0  0  0  0  0  0  0  0
   -2.0638   -0.2011   -1.0432 H   0  0  0  0  0  0  0  0  0  0  0  0
   -1.5773    1.4905   -0.8510 H   0  0  0  0  0  0  0  0  0  0  0  0
    1.3243    1.4707    0.9679 H   0  0  0  0  0  0  0  0  0  0  0  0
   -0.4371    2.1903    0.8642 H   0  0  0  0  0  0  0  0  0  0  0  0
    0.7269    2.2307   -0.5340 H   0  0  0  0  0  0  0  0  0  0  0  0
    0.9369   -1.4257   -1.4248 H   0  0  0  0  0  0  0  0  0  0  0  0
    1.8732   -1.1382    0.1176 H   0  0  0  0  0  0  0  0  0  0  0  0
    1.5521   -0.2982    1.8544 H   0  0  0  0  0  0  0  0  0  0  0  0
  3 12  1  0
  1 10  1  0
  4 15  1  0
  3 13  1  0
  3 14  1  0
  2  3  1  0
  4 16  1  0
  2  4  1  0
  4  5  1  0
  1  2  1  0
  2  5  1  0
  1  9  1  0
  1 11  1  0
  5  7  1  0
  5  6  1  0
  7  8  3  0
  6 17  1  0
M  END
$$$$

     RDKit          3D

 23 23  0  0  0  0  0  0  0  0999 V2000
   -0.0354    2.5127   -0.2190 C   0  0  0  0  0  0  0  0  0  0  0  0
    0.6206    1.0589   -0.3565 C   0  0  0  0  0  0  0  0  0  0  0  0
   -0.3760   -0.1182   -0.4413 C   0  0  0  0  0  0  0  0  0  0  0  0
   -0.1195   -1.1374    0.5889 C   0  0  0  0  0  0  0  0  0  0  0  0
   -1.1087   -2.2535    0.7218 C   0  0  0  0  0  0  0  0  0  0  0  0
   -2.5400   -1.9184    1.0743 C   0  0  0  0  0  0  0  0  0  0  0  0
   -3.0693   -0.9088    0.6400 O   0  0  0  0  0  0  0  0  0  0  0  0
    1.6801    1.1269   -1.4373 C   0  0  0  0  0  0  0  0  0  0  0  0
    2.0913    0.9025   -0.0013 C   0  0  0  0  0  0  0  0  0  0  0  0
    0.2658    3.1309   -1.0607 H   0  0  0  0  0  0  0  0  0  0  0  0
   -1.1201    2.4680   -0.0939 H   0  0  0  0  0  0  0  0  0  0  0  0
    0.3886    3.0151    0.6271 H   0  0  0  0  0  0  0  0  0  0  0  0
   -1.3737    0.3455   -0.4307 H   0  0  0  0  0  0  0  0  0  0  0  0
   -0.3981   -0.4511   -1.4526 H   0  0  0  0  0  0  0  0  0  0  0  0
    0.9781   -1.5670    0.5508 H   0  0  0  0  0  0  0  0  0  0  0  0
   -0.0876   -0.5614    1.5794 H   0  0  0  0  0  0  0  0  0  0  0  0
   -1.0022   -3.0483   -0.0540 H   0  0  0  0  0  0  0  0  0  0  0  0
   -0.7082   -2.7656    1.6541 H   0  0  0  0  0  0  0  0  0  0  0  0
   -3.0589   -2.6408    1.6941 H   0  0  0  0  0  0  0  0  0  0  0  0
    1.2589    0.4707   -2.2592 H   0  0  0  0  0  0  0  0  0  0  0  0
    2.6428    0.7218   -1.9764 H   0  0  0  0  0  0  0  0  0  0  0  0
    2.4222   -0.1009    0.1538 H   0  0  0  0  0  0  0  0  0  0  0  0
    2.6493    1.7184    0.4987 H   0  0  0  0  0  0  0  0  0  0  0  0
  6 19  1  0
  6  7  2  0
  5  6  1  0
  4 16  1  0
  5 17  1  0
  4  5  1  0
  5 18  1  0
  4 15  1  0
  3  4  1  0
  8 20  1  0
  3 13  1  0
  8 21  1  0
  2  3  1  0
  3 14  1  0
  2  8  1  0
  8  9  1  0
  1 11  1  0
  1  2  1  0
  2  9  1  0
  1 10  1  0
  1 12  1  0
  9 23  1  0
  9 22  1  0
M  END
$$$$

     RDKit          3D

 17 18  0  0  0  0  0  0  0  0999 V2000
    0.0649   -2.9604    0.8395 C   0  0  0  0  0  0  0  0  0  0  0  0
   -0.5087   -1.9168    0.5159 C   0  0  0  0  0  0  0  0  0  0  0  0
   -1.1918   -0.6621    0.4081 C   0  0  0  0  0  0  0  0  0  0  0  0
   -0.1847    0.2657    1.1200 C   0  0  0  0  0  0  0  0  0  0  0  0
    1.2393    0.0445    0.6704 O   0  0  0  0  0  0  0  0  0  0  0  0
    1.4225    0.1297   -0.7735 C   0  0  0  0  0  0  0  0  0  0  0  0
    0.7856    1.4150   -1.3316 C   0  0  0  0  0  0  0  0  0  0  0  0
   -0.4778    1.5912   -0.9788 C   0  0  0  0  0  0  0  0  0  0  0  0
   -1.1286    0.8403    0.1034 C   0  0  0  0  0  0  0  0  0  0  0  0
    0.5708   -3.8851    1.0713 H   0  0  0  0  0  0  0  0  0  0  0  0
   -2.2187   -0.8662    0.7761 H   0  0  0  0  0  0  0  0  0  0  0  0
   -0.3633    0.3973    2.2081 H   0  0  0  0  0  0  0  0  0  0  0  0
    0.9068   -0.7300   -1.2312 H   0  0  0  0  0  0  0  0  0  0  0  0
    2.4826    0.1080   -1.0547 H   0  0  0  0  0  0  0  0  0  0  0  0
    1.4718    2.3002   -1.7678 H   0  0  0  0  0  0  0  0  0  0  0  0
   -0.9175    2.5314   -1.1935 H   0  0  0  0  0  0  0  0  0  0  0  0
   -1.9532    1.3973    0.6183 H   0  0  0  0  0  0  0  0  0  0  0  0
  8 16  1  0
  9 17  1  0
  3 11  1  0
  3  9  1  0
  8  9  1  0
  4  9  1  0
  2  3  1  0
  3  4  1  0
  7  8  2  0
  1  2  3  0
  1 10  1  0
  7 15  1  0
  6  7  1  0
  4 12  1  0
  4  5  1  0
  5  6  1  0
  6 13  1  0
  6 14  1  0
M  END
$$$$

     RDKit          3D

 18 21  0  0  0  0  0  0  0  0999 V2000
   -0.7382    1.7202    1.0259 O   0  0  0  0  0  0  0  0  0  0  0  0
   -0.1275    1.1655   -0.4160 C   0  0  0  0  0  0  0  0  0  0  0  0
    1.3510    0.8955   -0.1881 C   0  0  0  0  0  0  0  0  0  0  0  0
    1.3938   -0.4170    0.5618 C   0  0  0  0  0  0  0  0  0  0  0  0
    0.2298   -1.3928    0.6924 N   0  0  0  0  0  0  0  0  0  0  0  0
   -0.4376   -1.4799   -0.6035 C   0  0  0  0  0  0  0  0  0  0  0  0
   -1.1847   -0.9365    0.5627 C   0  0  0  0  0  0  0  0  0  0  0  0
   -1.5125    0.2968   -0.3205 C   0  0  0  0  0  0  0  0  0  0  0  0
   -0.6139   -0.1606   -1.2998 C   0  0  0  0  0  0  0  0  0  0  0  0
    0.0834    1.9756    1.6113 H   0  0  0  0  0  0  0  0  0  0  0  0
    1.9901    0.7515   -1.1036 H   0  0  0  0  0  0  0  0  0  0  0  0
    1.7336    1.9765    0.1677 H   0  0  0  0  0  0  0  0  0  0  0  0
    2.1875   -1.0562    0.1725 H   0  0  0  0  0  0  0  0  0  0  0  0
    1.7625   -0.1806    1.6294 H   0  0  0  0  0  0  0  0  0  0  0  0
   -0.8389   -2.4762   -0.9724 H   0  0  0  0  0  0  0  0  0  0  0  0
   -1.9371   -1.5666    0.9754 H   0  0  0  0  0  0  0  0  0  0  0  0
   -2.1250    1.2267   -0.2550 H   0  0  0  0  0  0  0  0  0  0  0  0
   -1.2165   -0.3419   -2.2400 H   0  0  0  0  0  0  0  0  0  0  0  0
  4 13  1  0
  3 11  1  0
  3  4  1  0
  4 14  1  0
  4  5  1  0
  3 12  1  0
  2  3  1  0
  7 16  1  0
  5  7  1  0
  5  6  1  0
  1  2  1  0
  2  8  1  0
  2  9  1  0
  7  8  1  0
  6  7  1  0
  1 10  1  0
  8 17  1  0
  8  9  1  0
  6  9  1  0
  6 15  1  0
  9 18  1  0
M  END
$$$$

     RDKit          3D

 18 18  0  0  0  0  0  0  0  0999 V2000
    0.4263    1.6259   -0.7585 C   0  0  0  0  0  0  0  0  0  0  0  0
   -0.6310    1.3192    0.2931 C   0  0  0  0  0  0  0  0  0  0  0  0
   -0.0331    1.5142    1.5764 O   0  0  0  0  0  0  0  0  0  0  0  0
   -1.3052   -0.0247    0.2626 C   0  0  0  0  0  0  0  0  0  0  0  0
   -1.4637   -0.6355   -1.0312 O   0  0  0  0  0  0  0  0  0  0  0  0
   -0.7016   -1.3953   -0.0673 C   0  0  0  0  0  0  0  0  0  0  0  0
    0.6704   -1.7007   -0.5392 C   0  0  0  0  0  0  0  0  0  0  0  0
    1.5287   -1.4000    0.6182 C   0  0  0  0  0  0  0  0  0  0  0  0
    2.1754   -1.0222    1.5164 N   0  0  0  0  0  0  0  0  0  0  0  0
    0.0798    1.3719   -1.7739 H   0  0  0  0  0  0  0  0  0  0  0  0
    0.6627    2.6989   -0.7237 H   0  0  0  0  0  0  0  0  0  0  0  0
    1.3827    1.1343   -0.5326 H   0  0  0  0  0  0  0  0  0  0  0  0
   -1.4309    2.0634    0.2091 H   0  0  0  0  0  0  0  0  0  0  0  0
    0.2917    0.6389    1.9020 H   0  0  0  0  0  0  0  0  0  0  0  0
   -2.1843   -0.0179    0.9100 H   0  0  0  0  0  0  0  0  0  0  0  0
   -1.1844   -2.2673    0.3827 H   0  0  0  0  0  0  0  0  0  0  0  0
    0.7410   -2.7747   -0.8138 H   0  0  0  0  0  0  0  0  0  0  0  0
    0.9755   -1.1284   -1.4302 H   0  0  0  0  0  0  0  0  0  0  0  0
  1 11  1  0
  8  9  3  0
  5  6  1  0
  4  5  1  0
  7 17  1  0
  7  8  1  0
  2 13  1  0
  1 10  1  0
  1  2  1  0
  1 12  1  0
  6  7  1  0
  7 18  1  0
  2  4  1  0
  2  3  1  0
  4  6  1  0
  6 16  1  0
  4 15  1  0
  3 14  1  0
M  END
$$$$

     RDKit          3D

 17 17  0  0  0  0  0  0  0  0999 V2000
   -1.7397    0.5910   -0.6840 C   0  0  0  0  0  0  0  0  0  0  0  0
   -0.9120   -0.5401   -0.1444 C   0  0  0  0  0  0  0  0  0  0  0  0
    0.1108   -1.0157   -1.1105 N   0  0  0  0  0  0  0  0  0  0  0  0
    1.2187   -0.8641   -0.1614 C   0  0  0  0  0  0  0  0  0  0  0  0
    2.2694    0.0267   -0.5675 C   0  0  0  0  0  0  0  0  0  0  0  0
    3.2339    0.6441   -0.7338 N   0  0  0  0  0  0  0  0  0  0  0  0
    0.2032   -0.3760    0.9277 C   0  0  0  0  0  0  0  0  0  0  0  0
    0.4032    1.0320    1.3149 N   0  0  0  0  0  0  0  0  0  0  0  0
   -2.0479    0.3633   -1.7180 H   0  0  0  0  0  0  0  0  0  0  0  0
   -2.6858    0.6965   -0.1236 H   0  0  0  0  0  0  0  0  0  0  0  0
   -1.2847    1.5944   -0.7253 H   0  0  0  0  0  0  0  0  0  0  0  0
   -1.6277   -1.3330    0.1097 H   0  0  0  0  0  0  0  0  0  0  0  0
    0.1258   -0.5197   -1.9723 H   0  0  0  0  0  0  0  0  0  0  0  0
    1.6410   -1.8218    0.0953 H   0  0  0  0  0  0  0  0  0  0  0  0
    0.1237   -1.0741    1.7635 H   0  0  0  0  0  0  0  0  0  0  0  0
    1.2972    1.2211    1.7873 H   0  0  0  0  0  0  0  0  0  0  0  0
   -0.3291    1.3755    1.9425 H   0  0  0  0  0  0  0  0  0  0  0  0
  3 13  1  0
  1 10  1  0
  2  3  1  0
  3  4  1  0
  1  9  1  0
  1  2  1  0
  1 11  1  0
  2 12  1  0
  2  7  1  0
  4 14  1  0
  4  5  1  0
  4  7  1  0
  5  6  3  0
  7  8  1  0
  7 15  1  0
  8 17  1  0
  8 16  1  0
M  END
$$$$

     RDKit          3D

 21 22  0  0  0  0  0  0  0  0999 V2000
    3.0495    1.2926   -0.4850 O   0  0  0  0  0  0  0  0  0  0  0  0
    1.8679    0.7471    0.0031 C   0  0  0  0  0  0  0  0  0  0  0  0
    0.6660    1.5518    0.3907 C   0  0  0  0  0  0  0  0  0  0  0  0
   -0.2351    0.3186   -0.4018 C   0  0  0  0  0  0  0  0  0  0  0  0
   -1.2453    0.3664   -1.5057 O   0  0  0  0  0  0  0  0  0  0  0  0
    1.0172    0.5006   -1.3009 C   0  0  0  0  0  0  0  0  0  0  0  0
   -0.6378   -0.6164    0.7260 C   0  0  0  0  0  0  0  0  0  0  0  0
   -2.3572   -0.7082    1.2770 C   0  0  0  0  0  0  0  0  0  0  0  0
   -1.5240   -1.8393    0.6716 C   0  0  0  0  0  0  0  0  0  0  0  0
    3.3662    0.3939   -1.0377 H   0  0  0  0  0  0  0  0  0  0  0  0
    2.0772   -0.0894    0.6730 H   0  0  0  0  0  0  0  0  0  0  0  0
    0.4335    1.7100    1.5993 H   0  0  0  0  0  0  0  0  0  0  0  0
    0.5453    2.6235   -0.0578 H   0  0  0  0  0  0  0  0  0  0  0  0
   -0.8212   -0.3320   -2.0511 H   0  0  0  0  0  0  0  0  0  0  0  0
    1.3774   -0.3656   -1.8590 H   0  0  0  0  0  0  0  0  0  0  0  0
    0.9309    1.3882   -2.0061 H   0  0  0  0  0  0  0  0  0  0  0  0
    0.3235   -1.2274    1.1577 H   0  0  0  0  0  0  0  0  0  0  0  0
   -2.8553   -1.0278    2.2047 H   0  0  0  0  0  0  0  0  0  0  0  0
   -2.8170    0.2353    0.6850 H   0  0  0  0  0  0  0  0  0  0  0  0
   -1.3254   -2.5758    1.5254 H   0  0  0  0  0  0  0  0  0  0  0  0
   -1.8364   -2.3461   -0.2082 H   0  0  0  0  0  0  0  0  0  0  0  0
  2 11  1  0
  6 15  1  0
  6 16  1  0
  2  6  1  0
  4  6  1  0
  1  2  1  0
  2  3  1  0
  1 10  1  0
  3 12  1  0
  3  4  1  0
  3 13  1  0
  4  5  1  0
  4  7  1  0
  5 14  1  0
  7 17  1  0
  7  9  1  0
  7  8  1  0
  9 20  1  0
  9 21  1  0
  8  9  1  0
  8 19  1  0
  8 18  1  0
M  END
$$$$

     RDKit          3D

 15 15  0  0  0  0  0  0  0  0999 V2000
   -0.8549    1.6953    0.3635 C   0  0  0  0  0  0  0  0  0  0  0  0
    0.2391    0.8148    0.1955 N   0  0  0  0  0  0  0  0  0  0  0  0
    1.5042    1.3423   -0.0201 C   0  0  0  0  0  0  0  0  0  0  0  0
    1.7407    2.4693   -0.4729 O   0  0  0  0  0  0  0  0  0  0  0  0
    0.0797   -0.5387    0.2579 C   0  0  0  0  0  0  0  0  0  0  0  0
   -0.7152   -1.2441   -0.6119 C   0  0  0  0  0  0  0  0  0  0  0  0
   -0.3033   -2.5155   -0.4408 N   0  0  0  0  0  0  0  0  0  0  0  0
    0.4206   -2.6445    0.7035 N   0  0  0  0  0  0  0  0  0  0  0  0
    0.8459   -1.4184    1.0070 N   0  0  0  0  0  0  0  0  0  0  0  0
   -1.1493    1.6587    1.4298 H   0  0  0  0  0  0  0  0  0  0  0  0
   -0.6283    2.7340    0.1003 H   0  0  0  0  0  0  0  0  0  0  0  0
   -1.7448    1.3186   -0.1746 H   0  0  0  0  0  0  0  0  0  0  0  0
    2.3317    0.6173    0.1224 H   0  0  0  0  0  0  0  0  0  0  0  0
   -1.4338   -0.9704   -1.3647 H   0  0  0  0  0  0  0  0  0  0  0  0
   -0.3323   -3.3185   -1.0950 H   0  0  0  0  0  0  0  0  0  0  0  0
  7 15  1  0
  7  8  1  0
  6  7  1  0
  6 14  1  0
  8  9  2  0
  5  6  2  0
  5  9  1  0
  2  5  1  0
  1 11  1  0
  1 10  1  0
  1  2  1  0
  2  3  1  0
  1 12  1  0
  3 13  1  0
  3  4  2  0
M  END
$$$$

     RDKit          3D

 20 20  0  0  0  0  0  0  0  0999 V2000
   -0.8518    2.0759   -0.1089 C   0  0  0  0  0  0  0  0  0  0  0  0
   -0.5996    1.4648    1.1173 O   0  0  0  0  0  0  0  0  0  0  0  0
    0.3651    0.4031    1.1379 C   0  0  0  0  0  0  0  0  0  0  0  0
    1.7849    0.9240    0.9910 C   0  0  0  0  0  0  0  0  0  0  0  0
   -0.1041   -0.6614    0.1830 C   0  0  0  0  0  0  0  0  0  0  0  0
   -1.2348   -1.4604    0.2652 C   0  0  0  0  0  0  0  0  0  0  0  0
   -1.3062   -2.2431   -0.9002 C   0  0  0  0  0  0  0  0  0  0  0  0
   -0.1749   -1.9699   -1.6362 C   0  0  0  0  0  0  0  0  0  0  0  0
    0.5413   -1.0023   -0.9803 N   0  0  0  0  0  0  0  0  0  0  0  0
    0.0391    2.6161   -0.4794 H   0  0  0  0  0  0  0  0  0  0  0  0
   -1.2230    1.3837   -0.8667 H   0  0  0  0  0  0  0  0  0  0  0  0
   -1.6672    2.7835    0.0686 H   0  0  0  0  0  0  0  0  0  0  0  0
    0.2537   -0.0201    2.1385 H   0  0  0  0  0  0  0  0  0  0  0  0
    2.3292    0.4383    0.1665 H   0  0  0  0  0  0  0  0  0  0  0  0
    2.3047    0.7987    1.9546 H   0  0  0  0  0  0  0  0  0  0  0  0
    1.7881    2.0224    0.8204 H   0  0  0  0  0  0  0  0  0  0  0  0
   -1.8993   -1.4933    1.1289 H   0  0  0  0  0  0  0  0  0  0  0  0
   -2.0366   -2.9650   -1.1820 H   0  0  0  0  0  0  0  0  0  0  0  0
    0.2166   -2.3681   -2.5557 H   0  0  0  0  0  0  0  0  0  0  0  0
    1.4747   -0.7265   -1.2624 H   0  0  0  0  0  0  0  0  0  0  0  0
  4 16  1  0
  4 14  1  0
  4 15  1  0
  3  4  1  0
  6 17  1  0
  1 11  1  0
  3 13  1  0
  3  5  1  0
  2  3  1  0
  5  6  2  0
  6  7  1  0
  1 12  1  0
  1  2  1  0
  1 10  1  0
  5  9  1  0
  7 18  1  0
  7  8  2  0
  8  9  1  0
  9 20  1  0
  8 19  1  0
M  END
$$$$

     RDKit          3D

 12 12  0  0  0  0  0  0  0  0999 V2000
    0.3758    1.8104    0.8059 N   0  0  0  0  0  0  0  0  0  0  0  0
    0.6088    0.5835    0.2415 C   0  0  0  0  0  0  0  0  0  0  0  0
   -0.2063   -0.2897   -0.3051 C   0  0  0  0  0  0  0  0  0  0  0  0
    0.4263   -1.4389   -0.7026 O   0  0  0  0  0  0  0  0  0  0  0  0
    1.7026   -1.2271   -0.2036 C   0  0  0  0  0  0  0  0  0  0  0  0
    2.5485   -2.1288   -0.1575 O   0  0  0  0  0  0  0  0  0  0  0  0
    1.9012    0.0606    0.2926 O   0  0  0  0  0  0  0  0  0  0  0  0
   -1.6283   -0.2577   -0.3829 C   0  0  0  0  0  0  0  0  0  0  0  0
   -2.7921   -0.5629   -0.4012 C   0  0  0  0  0  0  0  0  0  0  0  0
    1.2041    2.3949    0.8189 H   0  0  0  0  0  0  0  0  0  0  0  0
   -0.4691    2.2664    0.4516 H   0  0  0  0  0  0  0  0  0  0  0  0
   -3.6715   -1.2108   -0.4575 H   0  0  0  0  0  0  0  0  0  0  0  0
  1  2  1  0
  1 10  1  0
  1 11  1  0
  2  3  2  0
  2  7  1  0
  3  4  1  0
  3  8  1  0
  4  5  1  0
  5  6  2  0
  5  7  1  0
  8  9  3  0
  9 12  1  0
M  END
$$$$

     RDKit          3D

 18 21  0  0  0  0  0  0  0  0999 V2000
   -0.4851    1.1647    1.6769 C   0  0  0  0  0  0  0  0  0  0  0  0
    0.0303   -0.1006    0.8051 C   0  0  0  0  0  0  0  0  0  0  0  0
   -0.2472   -1.6229   -0.3245 C   0  0  0  0  0  0  0  0  0  0  0  0
   -1.6586   -0.7203   -0.3173 C   0  0  0  0  0  0  0  0  0  0  0  0
   -0.5513    0.4657   -0.8226 N   0  0  0  0  0  0  0  0  0  0  0  0
    0.8019    0.4445   -1.1576 C   0  0  0  0  0  0  0  0  0  0  0  0
    1.1451   -1.1318   -1.0610 C   0  0  0  0  0  0  0  0  0  0  0  0
    2.2193   -0.7253   -0.1209 O   0  0  0  0  0  0  0  0  0  0  0  0
    1.4113    0.3278    0.3533 C   0  0  0  0  0  0  0  0  0  0  0  0
   -0.2031    2.0732    1.1003 H   0  0  0  0  0  0  0  0  0  0  0  0
   -1.6128    1.2403    1.5990 H   0  0  0  0  0  0  0  0  0  0  0  0
   -0.0556    1.1818    2.7879 H   0  0  0  0  0  0  0  0  0  0  0  0
   -0.7851   -1.9024   -1.2968 H   0  0  0  0  0  0  0  0  0  0  0  0
   -2.1377   -0.6116    0.7538 H   0  0  0  0  0  0  0  0  0  0  0  0
   -2.4419   -0.7246   -1.0535 H   0  0  0  0  0  0  0  0  0  0  0  0
    1.1574    1.0846   -1.9409 H   0  0  0  0  0  0  0  0  0  0  0  0
    1.4421   -1.6097   -1.9948 H   0  0  0  0  0  0  0  0  0  0  0  0
    1.9712    1.1665    1.0136 H   0  0  0  0  0  0  0  0  0  0  0  0
  3 13  1  0
  7 17  1  0
  3  7  1  0
  3  4  1  0
  2  3  1  0
  7  8  1  0
  6  7  1  0
  8  9  1  0
  1 11  1  0
  4 15  1  0
  4 14  1  0
  4  5  1  0
  1 10  1  0
  1  2  1  0
  2  9  1  0
  2  5  1  0
  1 12  1  0
  6  9  1  0
  9 18  1  0
  5  6  1  0
  6 16  1  0
M  END
$$$$

     RDKit          3D

 13 13  0  0  0  0  0  0  0  0999 V2000
    1.8464    0.3514   -2.3994 N   0  0  0  0  0  0  0  0  0  0  0  0
    1.4224   -0.0460   -1.2441 C   0  0  0  0  0  0  0  0  0  0  0  0
    0.8833    0.7271   -0.2313 N   0  0  0  0  0  0  0  0  0  0  0  0
   -0.2312    0.2472    0.3905 C   0  0  0  0  0  0  0  0  0  0  0  0
   -1.5390    0.6375    0.4852 C   0  0  0  0  0  0  0  0  0  0  0  0
   -2.2708   -0.3082    1.1645 N   0  0  0  0  0  0  0  0  0  0  0  0
   -1.3595   -1.1900    1.5122 C   0  0  0  0  0  0  0  0  0  0  0  0
   -0.0806   -0.8842    1.1351 O   0  0  0  0  0  0  0  0  0  0  0  0
    1.7126    1.3743   -2.4732 H   0  0  0  0  0  0  0  0  0  0  0  0
    1.4930   -1.1274   -0.9896 H   0  0  0  0  0  0  0  0  0  0  0  0
    1.6229    0.7663    0.4718 H   0  0  0  0  0  0  0  0  0  0  0  0
   -1.9995    1.5645    0.1212 H   0  0  0  0  0  0  0  0  0  0  0  0
   -1.4998   -2.1125    2.0573 H   0  0  0  0  0  0  0  0  0  0  0  0
  5 12  1  0
  1  9  1  0
  1  2  2  3
  5  6  1  0
  4  5  2  0
  6  7  2  0
  2 10  1  0
  2  3  1  0
  3  4  1  0
  4  8  1  0
  7 13  1  0
  7  8  1  0
  3 11  1  0
M  END
$$$$

     RDKit          3D

 22 23  0  0  0  0  0  0  0  0999 V2000
   -0.2860    1.8569   -0.9876 C   0  0  0  0  0  0  0  0  0  0  0  0
   -0.7718    0.7003   -0.0210 C   0  0  0  0  0  0  0  0  0  0  0  0
   -1.2346   -0.5078   -0.8556 C   0  0  0  0  0  0  0  0  0  0  0  0
   -0.1262   -1.2653   -1.4657 C   0  0  0  0  0  0  0  0  0  0  0  0
    0.9145   -1.6743   -0.4593 C   0  0  0  0  0  0  0  0  0  0  0  0
    1.2925   -0.6923    0.3634 C   0  0  0  0  0  0  0  0  0  0  0  0
    0.3394    0.2248    0.9529 C   0  0  0  0  0  0  0  0  0  0  0  0
   -0.0677   -0.1370    2.3575 C   0  0  0  0  0  0  0  0  0  0  0  0
    0.7094    0.9866    2.1318 N   0  0  0  0  0  0  0  0  0  0  0  0
    0.7035    1.5898   -1.4459 H   0  0  0  0  0  0  0  0  0  0  0  0
   -0.0717    2.7283   -0.3465 H   0  0  0  0  0  0  0  0  0  0  0  0
   -0.9720    2.1006   -1.7482 H   0  0  0  0  0  0  0  0  0  0  0  0
   -1.6495    1.0778    0.6007 H   0  0  0  0  0  0  0  0  0  0  0  0
   -1.7339   -1.1837   -0.1986 H   0  0  0  0  0  0  0  0  0  0  0  0
   -2.0153   -0.2603   -1.6125 H   0  0  0  0  0  0  0  0  0  0  0  0
    0.4320   -0.6705   -2.2008 H   0  0  0  0  0  0  0  0  0  0  0  0
   -0.3895   -2.1469   -2.0435 H   0  0  0  0  0  0  0  0  0  0  0  0
    1.7531   -2.2727   -0.8641 H   0  0  0  0  0  0  0  0  0  0  0  0
    2.2050   -0.1260    0.0140 H   0  0  0  0  0  0  0  0  0  0  0  0
   -1.0608    0.0446    2.7814 H   0  0  0  0  0  0  0  0  0  0  0  0
    0.3118   -1.1562    2.7623 H   0  0  0  0  0  0  0  0  0  0  0  0
    1.7179    0.7835    2.2854 H   0  0  0  0  0  0  0  0  0  0  0  0
  3 15  1  0
  4 16  1  0
  4 17  1  0
  3  4  1  0
  4  5  1  0
  3 14  1  0
  2  3  1  0
  1 11  1  0
  2 13  1  0
  1  2  1  0
  2  7  1  0
  1 10  1  0
  1 12  1  0
  5 18  1  0
  5  6  2  0
  6  7  1  0
  6 19  1  0
  7  9  1  0
  7  8  1  0
  9 22  1  0
  8  9  1  0
  8 21  1  0
  8 20  1  0
M  END
$$$$

     RDKit          3D

 14 16  0  0  0  0  0  0  0  0999 V2000
   -0.7420   -2.4422    2.1314 N   0  0  0  0  0  0  0  0  0  0  0  0
   -0.2666   -1.6169    1.4472 C   0  0  0  0  0  0  0  0  0  0  0  0
    0.0766   -0.6337    0.5044 C   0  0  0  0  0  0  0  0  0  0  0  0
    1.4395   -0.3430   -0.0407 C   0  0  0  0  0  0  0  0  0  0  0  0
    1.2675    0.9582    0.6549 O   0  0  0  0  0  0  0  0  0  0  0  0
   -0.1797    0.7959    0.6819 C   0  0  0  0  0  0  0  0  0  0  0  0
   -0.7981    1.2458   -0.6553 C   0  0  0  0  0  0  0  0  0  0  0  0
   -0.5147    0.1949   -1.6245 O   0  0  0  0  0  0  0  0  0  0  0  0
    0.2160   -0.8585   -0.9090 C   0  0  0  0  0  0  0  0  0  0  0  0
    2.1033   -0.1590   -0.8969 H   0  0  0  0  0  0  0  0  0  0  0  0
   -0.6187    1.1886    1.6003 H   0  0  0  0  0  0  0  0  0  0  0  0
   -1.8907    1.3370   -0.5663 H   0  0  0  0  0  0  0  0  0  0  0  0
   -0.3565    2.1942   -0.9995 H   0  0  0  0  0  0  0  0  0  0  0  0
    0.2640   -1.8612   -1.3280 H   0  0  0  0  0  0  0  0  0  0  0  0
  7 13  1  0
  7  8  1  0
  8  9  1  0
  7 12  1  0
  6  7  1  0
  9 14  1  0
  3  9  1  0
  4  9  1  0
  3  6  1  0
  6 11  1  0
  5  6  1  0
  2  3  1  0
  3  4  1  0
  1  2  3  0
  4  5  1  0
  4 10  1  0
M  END
$$$$

     RDKit          3D

 20 19  0  0  0  0  0  0  0  0999 V2000
    1.8070   -0.0529    1.0465 C   0  0  0  0  0  0  0  0  0  0  0  0
    0.3736   -0.0016    0.3394 C   0  0  0  0  0  0  0  0  0  0  0  0
    0.0497    1.4882   -0.0969 C   0  0  0  0  0  0  0  0  0  0  0  0
   -0.7478   -0.5042    1.4034 C   0  0  0  0  0  0  0  0  0  0  0  0
    0.2033   -0.9191   -1.0944 C   0  0  0  0  0  0  0  0  0  0  0  0
    1.4415   -0.1939   -1.7661 O   0  0  0  0  0  0  0  0  0  0  0  0
   -1.2818   -0.8991   -1.2980 C   0  0  0  0  0  0  0  0  0  0  0  0
   -2.4593   -1.0207   -1.0989 C   0  0  0  0  0  0  0  0  0  0  0  0
    1.8952   -0.9481    1.8370 H   0  0  0  0  0  0  0  0  0  0  0  0
    1.9263    0.9832    1.5485 H   0  0  0  0  0  0  0  0  0  0  0  0
    2.6106   -0.2193    0.1915 H   0  0  0  0  0  0  0  0  0  0  0  0
   -1.0907    1.4862   -0.4013 H   0  0  0  0  0  0  0  0  0  0  0  0
    0.6870    1.8480   -0.9300 H   0  0  0  0  0  0  0  0  0  0  0  0
    0.2924    2.1969    0.6950 H   0  0  0  0  0  0  0  0  0  0  0  0
   -0.8322   -1.5729    1.4296 H   0  0  0  0  0  0  0  0  0  0  0  0
   -0.4800   -0.2405    2.4443 H   0  0  0  0  0  0  0  0  0  0  0  0
   -1.7551    0.1029    1.4171 H   0  0  0  0  0  0  0  0  0  0  0  0
   -0.2126   -0.6308   -2.1937 H   0  0  0  0  0  0  0  0  0  0  0  0
    1.1384    0.2273   -2.6139 H   0  0  0  0  0  0  0  0  0  0  0  0
   -3.5654   -1.1295   -0.8591 H   0  0  0  0  0  0  0  0  0  0  0  0
  5 18  1  0
  8 20  1  0
  7  8  3  0
  5  7  1  0
  5  6  1  0
  6 19  1  0
  2  5  1  0
  4 15  1  0
  1 10  1  0
  1  9  1  0
  1  2  1  0
  1 11  1  0
  2  4  1  0
  4 16  1  0
  4 17  1  0
  2  3  1  0
  3 14  1  0
  3 13  1  0
  3 12  1  0
M  END
$$$$

     RDKit          3D

 12 12  0  0  0  0  0  0  0  0999 V2000
    1.8645   -1.5235   -1.6949 F   0  0  0  0  0  0  0  0  0  0  0  0
    1.2601   -0.6679   -0.8535 C   0  0  0  0  0  0  0  0  0  0  0  0
   -0.0862   -0.7935   -0.6554 C   0  0  0  0  0  0  0  0  0  0  0  0
   -0.6152    0.1055    0.2373 C   0  0  0  0  0  0  0  0  0  0  0  0
   -2.0600    0.0785    0.5499 C   0  0  0  0  0  0  0  0  0  0  0  0
   -2.8419   -0.6486   -0.0594 O   0  0  0  0  0  0  0  0  0  0  0  0
    0.1005    1.0522    0.8816 N   0  0  0  0  0  0  0  0  0  0  0  0
    1.4049    1.0846    0.5833 C   0  0  0  0  0  0  0  0  0  0  0  0
    2.0317    0.2589   -0.2594 N   0  0  0  0  0  0  0  0  0  0  0  0
   -0.6729   -1.5467   -1.1602 H   0  0  0  0  0  0  0  0  0  0  0  0
   -2.3904    0.7518    1.3619 H   0  0  0  0  0  0  0  0  0  0  0  0
    2.0049    1.8486    1.0688 H   0  0  0  0  0  0  0  0  0  0  0  0
  1  2  1  0
  2  3  2  0
  2  9  1  0
  3  4  1  0
  3 10  1  0
  4  5  1  0
  4  7  2  0
  5  6  2  0
  5 11  1  0
  7  8  1  0
  8  9  2  0
  8 12  1  0
M  END
$$$$

     RDKit          3D

 19 21  0  0  0  0  0  0  0  0999 V2000
   -1.6907    1.9593   -0.9898 C   0  0  0  0  0  0  0  0  0  0  0  0
   -0.6353    1.2243   -0.2312 C   0  0  0  0  0  0  0  0  0  0  0  0
   -0.7606   -0.2581   -0.0002 C   0  0  0  0  0  0  0  0  0  0  0  0
   -0.0243   -0.9490    1.1675 C   0  0  0  0  0  0  0  0  0  0  0  0
    0.8760   -2.1711    1.0456 C   0  0  0  0  0  0  0  0  0  0  0  0
    1.4816   -0.7953    0.9107 C   0  0  0  0  0  0  0  0  0  0  0  0
    1.6496   -0.1251   -0.4132 C   0  0  0  0  0  0  0  0  0  0  0  0
    2.6964   -0.1313   -1.0568 O   0  0  0  0  0  0  0  0  0  0  0  0
    0.2995    0.2989   -0.9736 C   0  0  0  0  0  0  0  0  0  0  0  0
   -1.3138    2.9450   -1.3095 H   0  0  0  0  0  0  0  0  0  0  0  0
   -2.5544    2.1053   -0.3469 H   0  0  0  0  0  0  0  0  0  0  0  0
   -2.0059    1.4161   -1.8930 H   0  0  0  0  0  0  0  0  0  0  0  0
   -0.2575    1.8248    0.5950 H   0  0  0  0  0  0  0  0  0  0  0  0
   -1.6105   -0.7678   -0.4341 H   0  0  0  0  0  0  0  0  0  0  0  0
   -0.3589   -0.6923    2.1740 H   0  0  0  0  0  0  0  0  0  0  0  0
    1.0796   -2.7654    1.9353 H   0  0  0  0  0  0  0  0  0  0  0  0
    0.8404   -2.7972    0.1499 H   0  0  0  0  0  0  0  0  0  0  0  0
    2.1169   -0.4262    1.7020 H   0  0  0  0  0  0  0  0  0  0  0  0
    0.1719    0.1050   -2.0315 H   0  0  0  0  0  0  0  0  0  0  0  0
  5 16  1  0
  4 15  1  0
  4  5  1  0
  5 17  1  0
  5  6  1  0
  4  6  1  0
  3  4  1  0
  6 18  1  0
  6  7  1  0
  3 14  1  0
  2  3  1  0
  3  9  1  0
  1 11  1  0
  7  9  1  0
  7  8  2  0
  1  2  1  0
  2  9  1  0
  2 13  1  0
  1 10  1  0
  1 12  1  0
  9 19  1  0
M  END
$$$$

     RDKit          3D

 20 20  0  0  0  0  0  0  0  0999 V2000
    1.2809    0.0717   -1.5522 C   0  0  0  0  0  0  0  0  0  0  0  0
    0.2716   -0.2803   -0.4850 C   0  0  0  0  0  0  0  0  0  0  0  0
   -1.1630   -0.7025   -0.9946 C   0  0  0  0  0  0  0  0  0  0  0  0
   -1.0749   -1.5206   -2.1732 O   0  0  0  0  0  0  0  0  0  0  0  0
   -0.1597    0.9713    0.5165 C   0  0  0  0  0  0  0  0  0  0  0  0
   -0.7962    0.2868    1.6394 C   0  0  0  0  0  0  0  0  0  0  0  0
    0.3148    1.1674    2.2770 C   0  0  0  0  0  0  0  0  0  0  0  0
    1.6447    0.6997    2.2971 O   0  0  0  0  0  0  0  0  0  0  0  0
    0.8767   -0.1484   -2.5763 H   0  0  0  0  0  0  0  0  0  0  0  0
    1.4582    1.1325   -1.6010 H   0  0  0  0  0  0  0  0  0  0  0  0
    2.2923   -0.4823   -1.5739 H   0  0  0  0  0  0  0  0  0  0  0  0
    0.5329   -1.3082   -0.1879 H   0  0  0  0  0  0  0  0  0  0  0  0
   -1.6237   -1.2479   -0.1100 H   0  0  0  0  0  0  0  0  0  0  0  0
   -1.8974    0.0652   -1.3013 H   0  0  0  0  0  0  0  0  0  0  0  0
   -0.2642   -2.1040   -2.1604 H   0  0  0  0  0  0  0  0  0  0  0  0
   -0.7059    1.7588    0.0479 H   0  0  0  0  0  0  0  0  0  0  0  0
   -1.8912    0.0706    1.4252 H   0  0  0  0  0  0  0  0  0  0  0  0
   -0.7470   -0.8328    1.8879 H   0  0  0  0  0  0  0  0  0  0  0  0
   -0.2855    1.3519    3.2257 H   0  0  0  0  0  0  0  0  0  0  0  0
    1.9365    1.0509    1.3992 H   0  0  0  0  0  0  0  0  0  0  0  0
  4 15  1  0
  3  4  1  0
  3 14  1  0
  3 13  1  0
  2  3  1  0
  1 10  1  0
  2 12  1  0
  1  2  1  0
  2  5  1  0
  1  9  1  0
  1 11  1  0
  8 20  1  0
  7  8  1  0
  5 16  1  0
  5  7  1  0
  5  6  1  0
  7 19  1  0
  6  7  1  0
  6 18  1  0
  6 17  1  0
M  END
$$$$

     RDKit          3D

 19 20  0  0  0  0  0  0  0  0999 V2000
   -0.3679    2.4938   -0.2296 C   0  0  0  0  0  0  0  0  0  0  0  0
    0.0730    1.0742   -0.1918 C   0  0  0  0  0  0  0  0  0  0  0  0
   -0.0779    0.1939   -1.3908 C   0  0  0  0  0  0  0  0  0  0  0  0
    0.1389   -1.2391   -0.8829 C   0  0  0  0  0  0  0  0  0  0  0  0
   -0.2454   -1.2034    0.6091 C   0  0  0  0  0  0  0  0  0  0  0  0
    0.5753   -2.1785    1.4315 C   0  0  0  0  0  0  0  0  0  0  0  0
    0.8379   -3.3273    1.0738 O   0  0  0  0  0  0  0  0  0  0  0  0
   -0.0324    0.2277    1.0313 C   0  0  0  0  0  0  0  0  0  0  0  0
    1.2151    0.8107    0.6398 O   0  0  0  0  0  0  0  0  0  0  0  0
   -1.4113    2.5647   -0.5596 H   0  0  0  0  0  0  0  0  0  0  0  0
   -0.2805    2.9635    0.7481 H   0  0  0  0  0  0  0  0  0  0  0  0
    0.2500    3.0646   -0.9290 H   0  0  0  0  0  0  0  0  0  0  0  0
    0.6477    0.4438   -2.1698 H   0  0  0  0  0  0  0  0  0  0  0  0
   -1.0861    0.2995   -1.8088 H   0  0  0  0  0  0  0  0  0  0  0  0
   -0.4492   -1.9732   -1.4464 H   0  0  0  0  0  0  0  0  0  0  0  0
    1.1973   -1.5091   -1.0037 H   0  0  0  0  0  0  0  0  0  0  0  0
   -1.3009   -1.4543    0.7483 H   0  0  0  0  0  0  0  0  0  0  0  0
    0.8731   -1.8260    2.4246 H   0  0  0  0  0  0  0  0  0  0  0  0
   -0.5566    0.5745    1.9060 H   0  0  0  0  0  0  0  0  0  0  0  0
  3 14  1  0
  1 11  1  0
  4 16  1  0
  3 13  1  0
  2  3  1  0
  3  4  1  0
  1  2  1  0
  1 10  1  0
  1 12  1  0
  2  9  1  0
  8  9  1  0
  2  8  1  0
  4 15  1  0
  4  5  1  0
  6 18  1  0
  5  8  1  0
  8 19  1  0
  5  6  1  0
  5 17  1  0
  6  7  2  0
M  END
$$$$

     RDKit          3D

 20 19  0  0  0  0  0  0  0  0999 V2000
   -0.7551    1.4689   -0.0334 C   0  0  0  0  0  0  0  0  0  0  0  0
   -0.1017    0.0685   -0.1867 C   0  0  0  0  0  0  0  0  0  0  0  0
   -1.2120   -0.8100   -0.9498 C   0  0  0  0  0  0  0  0  0  0  0  0
   -1.5478   -2.0913   -0.3337 O   0  0  0  0  0  0  0  0  0  0  0  0
    1.2900    0.3157   -0.9493 C   0  0  0  0  0  0  0  0  0  0  0  0
    1.7152   -0.7357   -1.8013 O   0  0  0  0  0  0  0  0  0  0  0  0
    0.1437   -0.5665    1.3411 C   0  0  0  0  0  0  0  0  0  0  0  0
    1.2461   -0.1006    2.0497 N   0  0  0  0  0  0  0  0  0  0  0  0
   -0.9348   -0.8112    1.9676 O   0  0  0  0  0  0  0  0  0  0  0  0
   -0.6103    1.6619    1.0489 H   0  0  0  0  0  0  0  0  0  0  0  0
   -0.2403    2.2881   -0.6209 H   0  0  0  0  0  0  0  0  0  0  0  0
   -1.7991    1.4577   -0.2239 H   0  0  0  0  0  0  0  0  0  0  0  0
   -2.0947   -0.2722   -1.1119 H   0  0  0  0  0  0  0  0  0  0  0  0
   -0.9141   -0.9648   -2.0301 H   0  0  0  0  0  0  0  0  0  0  0  0
   -1.6909   -1.8576    0.5945 H   0  0  0  0  0  0  0  0  0  0  0  0
    2.0974    0.2613   -0.1505 H   0  0  0  0  0  0  0  0  0  0  0  0
    1.4005    1.3348   -1.4353 H   0  0  0  0  0  0  0  0  0  0  0  0
    1.1080   -1.4013   -1.3886 H   0  0  0  0  0  0  0  0  0  0  0  0
    2.0570    0.2289    1.4817 H   0  0  0  0  0  0  0  0  0  0  0  0
    0.8428    0.5257    2.7317 H   0  0  0  0  0  0  0  0  0  0  0  0
  7  9  2  0
  8 20  1  0
  7  8  1  0
  2  7  1  0
  8 19  1  0
  1 11  1  0
  5 16  1  0
  5 17  1  0
  1  2  1  0
  1 10  1  0
  1 12  1  0
  2  5  1  0
  2  3  1  0
  5  6  1  0
  3 13  1  0
  3  4  1  0
  3 14  1  0
  6 18  1  0
  4 15  1  0
M  END
$$$$

     RDKit          3D

 19 20  0  0  0  0  0  0  0  0999 V2000
    0.2316    2.4702   -0.3565 C   0  0  0  0  0  0  0  0  0  0  0  0
    0.4056    1.6475    0.8202 O   0  0  0  0  0  0  0  0  0  0  0  0
    0.7433    0.2758    0.6127 C   0  0  0  0  0  0  0  0  0  0  0  0
    0.1940   -0.8290    1.6219 C   0  0  0  0  0  0  0  0  0  0  0  0
   -0.7250   -1.7523    0.7124 C   0  0  0  0  0  0  0  0  0  0  0  0
   -1.1028   -0.6853   -0.2509 N   0  0  0  0  0  0  0  0  0  0  0  0
   -0.7164   -0.4846   -1.6558 C   0  0  0  0  0  0  0  0  0  0  0  0
    0.4137   -0.3171   -0.6763 C   0  0  0  0  0  0  0  0  0  0  0  0
    0.4313    3.5215   -0.0287 H   0  0  0  0  0  0  0  0  0  0  0  0
    0.9104    2.2129   -1.1277 H   0  0  0  0  0  0  0  0  0  0  0  0
   -0.7496    2.3242   -0.7402 H   0  0  0  0  0  0  0  0  0  0  0  0
    1.8266    0.1788    0.6978 H   0  0  0  0  0  0  0  0  0  0  0  0
   -0.3695   -0.3889    2.4341 H   0  0  0  0  0  0  0  0  0  0  0  0
    1.1513   -1.3657    1.8733 H   0  0  0  0  0  0  0  0  0  0  0  0
   -1.6758   -2.2425    1.1058 H   0  0  0  0  0  0  0  0  0  0  0  0
   -0.2109   -2.5461    0.2335 H   0  0  0  0  0  0  0  0  0  0  0  0
   -0.8308   -1.3616   -2.3383 H   0  0  0  0  0  0  0  0  0  0  0  0
   -1.0506    0.5128   -2.0866 H   0  0  0  0  0  0  0  0  0  0  0  0
    1.1237   -1.1706   -0.8508 H   0  0  0  0  0  0  0  0  0  0  0  0
  5 15  1  0
  8 19  1  0
  3 12  1  0
  5  6  1  0
  6  8  1  0
  6  7  1  0
  5 16  1  0
  4  5  1  0
  3  8  1  0
  7  8  1  0
  4 13  1  0
  3  4  1  0
  2  3  1  0
  4 14  1  0
  1 10  1  0
  7 17  1  0
  7 18  1  0
  1  2  1  0
  1  9  1  0
  1 11  1  0
M  END
$$$$

     RDKit          3D

 20 20  0  0  0  0  0  0  0  0999 V2000
    1.3392    2.1910    1.1044 C   0  0  0  0  0  0  0  0  0  0  0  0
   -0.1286    1.7877    0.8307 C   0  0  0  0  0  0  0  0  0  0  0  0
   -0.1660   -0.0012    0.3980 C   0  0  0  0  0  0  0  0  0  0  0  0
   -0.3291   -1.3477    1.1266 C   0  0  0  0  0  0  0  0  0  0  0  0
   -0.4181   -2.4595    0.1884 O   0  0  0  0  0  0  0  0  0  0  0  0
    0.0112   -1.9777   -1.3586 C   0  0  0  0  0  0  0  0  0  0  0  0
   -1.0231   -0.8673   -1.7181 C   0  0  0  0  0  0  0  0  0  0  0  0
   -0.9398    0.2100   -0.7727 O   0  0  0  0  0  0  0  0  0  0  0  0
    1.4855    2.2495    2.2360 H   0  0  0  0  0  0  0  0  0  0  0  0
    1.6846    3.2051    0.7343 H   0  0  0  0  0  0  0  0  0  0  0  0
    1.9709    1.7021    0.1543 H   0  0  0  0  0  0  0  0  0  0  0  0
   -0.6333    2.0885   -0.1180 H   0  0  0  0  0  0  0  0  0  0  0  0
   -1.0836    2.5373    1.2006 H   0  0  0  0  0  0  0  0  0  0  0  0
    1.0021   -0.1114    0.3783 H   0  0  0  0  0  0  0  0  0  0  0  0
    0.6878   -1.6188    1.7404 H   0  0  0  0  0  0  0  0  0  0  0  0
   -1.1315   -1.5459    1.7789 H   0  0  0  0  0  0  0  0  0  0  0  0
   -0.1296   -2.7962   -2.0216 H   0  0  0  0  0  0  0  0  0  0  0  0
    1.0172   -1.6273   -1.3127 H   0  0  0  0  0  0  0  0  0  0  0  0
   -2.1323   -1.0000   -1.6668 H   0  0  0  0  0  0  0  0  0  0  0  0
   -1.0834   -0.6183   -2.9024 H   0  0  0  0  0  0  0  0  0  0  0  0
  6 17  1  0
  7 20  1  0
  7 19  1  0
  6  7  1  0
  7  8  1  0
  6 18  1  0
  5  6  1  0
  4  5  1  0
  3  8  1  0
  3 14  1  0
  3  4  1  0
  2  3  1  0
  4 16  1  0
  4 15  1  0
  1 10  1  0
  1  2  1  0
  2 13  1  0
  2 12  1  0
  1  9  1  0
  1 11  1  0
M  END
$$$$

     RDKit          3D

 19 20  0  0  0  0  0  0  0  0999 V2000
    2.0712    1.8125   -0.0282 C   0  0  0  0  0  0  0  0  0  0  0  0
    0.9511    1.1343    0.7494 N   0  0  0  0  0  0  0  0  0  0  0  0
    0.8912   -0.2954    0.4035 C   0  0  0  0  0  0  0  0  0  0  0  0
    0.4742   -0.7049   -1.1212 C   0  0  0  0  0  0  0  0  0  0  0  0
    0.4644    0.0191   -2.5916 O   0  0  0  0  0  0  0  0  0  0  0  0
   -1.0187   -0.5268   -0.3655 C   0  0  0  0  0  0  0  0  0  0  0  0
   -1.7388   -0.0220    0.9268 C   0  0  0  0  0  0  0  0  0  0  0  0
   -1.4327   -1.3454    1.5398 C   0  0  0  0  0  0  0  0  0  0  0  0
   -0.1273   -1.4492    0.7714 N   0  0  0  0  0  0  0  0  0  0  0  0
    1.4926    2.8255   -0.2473 H   0  0  0  0  0  0  0  0  0  0  0  0
    2.4163    1.1473   -0.9575 H   0  0  0  0  0  0  0  0  0  0  0  0
    2.9435    1.8215    0.7181 H   0  0  0  0  0  0  0  0  0  0  0  0
    1.4367   -1.2034   -1.2299 H   0  0  0  0  0  0  0  0  0  0  0  0
    1.1327    0.7826   -2.5257 H   0  0  0  0  0  0  0  0  0  0  0  0
   -1.6764   -0.9955   -1.0666 H   0  0  0  0  0  0  0  0  0  0  0  0
   -1.4512    0.8512    1.4221 H   0  0  0  0  0  0  0  0  0  0  0  0
   -2.8915    0.3566    0.9154 H   0  0  0  0  0  0  0  0  0  0  0  0
   -2.1396   -1.8937    0.6491 H   0  0  0  0  0  0  0  0  0  0  0  0
   -1.7978   -2.3142    2.0378 H   0  0  0  0  0  0  0  0  0  0  0  0
  6 15  1  0
  4 13  1  0
  4  6  1  0
  4  5  1  0
  3  4  1  0
  6  9  1  0
  6  7  1  0
  5 14  1  0
  7 16  1  0
  3  9  1  0
  8  9  1  0
  7 17  1  0
  7  8  1  0
  2  3  1  0
  1 11  1  0
  8 18  1  0
  8 19  1  0
  1  2  1  0
  1 12  1  0
  1 10  1  0
M  END
$$$$

     RDKit          3D

 17 18  0  0  0  0  0  0  0  0999 V2000
    0.0501   -2.8786   -1.3932 O   0  0  0  0  0  0  0  0  0  0  0  0
   -0.3036   -1.9660   -0.6393 C   0  0  0  0  0  0  0  0  0  0  0  0
   -1.1921   -0.8378   -0.8789 C   0  0  0  0  0  0  0  0  0  0  0  0
   -0.2137    0.2071   -0.5255 C   0  0  0  0  0  0  0  0  0  0  0  0
   -0.6932    1.2464    0.4907 C   0  0  0  0  0  0  0  0  0  0  0  0
    0.7474    1.6699    0.9957 C   0  0  0  0  0  0  0  0  0  0  0  0
    1.4676    0.5158    1.1211 C   0  0  0  0  0  0  0  0  0  0  0  0
    0.8396   -0.5927    0.2558 C   0  0  0  0  0  0  0  0  0  0  0  0
    0.1506   -1.7781    0.6266 O   0  0  0  0  0  0  0  0  0  0  0  0
   -2.0733   -0.9675   -0.2344 H   0  0  0  0  0  0  0  0  0  0  0  0
   -1.5545   -0.7859   -1.8688 H   0  0  0  0  0  0  0  0  0  0  0  0
    0.1518    0.6612   -1.4322 H   0  0  0  0  0  0  0  0  0  0  0  0
   -1.1845    1.0687    1.4901 H   0  0  0  0  0  0  0  0  0  0  0  0
   -1.1175    2.1120   -0.0789 H   0  0  0  0  0  0  0  0  0  0  0  0
    0.7718    2.6554    1.3135 H   0  0  0  0  0  0  0  0  0  0  0  0
    2.5733    0.6489    1.2727 H   0  0  0  0  0  0  0  0  0  0  0  0
    1.5803   -0.9788   -0.5151 H   0  0  0  0  0  0  0  0  0  0  0  0
  8 17  1  0
  1  2  2  0
  2  9  1  0
  8  9  1  0
  2  3  1  0
  4 12  1  0
  3 10  1  0
  4  8  1  0
  7  8  1  0
  3  4  1  0
  3 11  1  0
  4  5  1  0
  7 16  1  0
  6  7  2  0
  5 13  1  0
  5  6  1  0
  5 14  1  0
  6 15  1  0
M  END
$$$$

     RDKit          3D

 21 22  0  0  0  0  0  0  0  0999 V2000
   -1.2624    1.6026    0.5114 C   0  0  0  0  0  0  0  0  0  0  0  0
   -1.3396    0.3269   -0.3103 C   0  0  0  0  0  0  0  0  0  0  0  0
   -0.6661    0.3872   -1.6609 C   0  0  0  0  0  0  0  0  0  0  0  0
    0.1560   -0.6617   -1.8070 C   0  0  0  0  0  0  0  0  0  0  0  0
    0.1721   -1.5650   -0.6451 C   0  0  0  0  0  0  0  0  0  0  0  0
    0.7368   -1.1748    0.6923 C   0  0  0  0  0  0  0  0  0  0  0  0
    1.8448   -0.1862    0.8022 C   0  0  0  0  0  0  0  0  0  0  0  0
    1.5114    0.8178    1.7490 O   0  0  0  0  0  0  0  0  0  0  0  0
   -0.7350   -0.8835    0.3826 C   0  0  0  0  0  0  0  0  0  0  0  0
   -0.3151    2.1342    0.3815 H   0  0  0  0  0  0  0  0  0  0  0  0
   -2.0563    2.2868    0.2104 H   0  0  0  0  0  0  0  0  0  0  0  0
   -1.3843    1.4046    1.5824 H   0  0  0  0  0  0  0  0  0  0  0  0
   -2.4030    0.1152   -0.4769 H   0  0  0  0  0  0  0  0  0  0  0  0
   -0.8690    1.1400   -2.4134 H   0  0  0  0  0  0  0  0  0  0  0  0
    0.7333   -0.8667   -2.7070 H   0  0  0  0  0  0  0  0  0  0  0  0
    0.0520   -2.6249   -0.8543 H   0  0  0  0  0  0  0  0  0  0  0  0
    0.9013   -1.9742    1.3973 H   0  0  0  0  0  0  0  0  0  0  0  0
    2.1301    0.2652   -0.1673 H   0  0  0  0  0  0  0  0  0  0  0  0
    2.7326   -0.7099    1.1979 H   0  0  0  0  0  0  0  0  0  0  0  0
    1.5449    1.6590    1.2504 H   0  0  0  0  0  0  0  0  0  0  0  0
   -1.4844   -1.4925    0.8849 H   0  0  0  0  0  0  0  0  0  0  0  0
  3 14  1  0
  1 11  1  0
  3  4  2  0
  2  3  1  0
  4 15  1  0
  1 10  1  0
  1  2  1  0
  1 12  1  0
  4  5  1  0
  2 13  1  0
  2  9  1  0
  7 18  1  0
  7 19  1  0
  7  8  1  0
  6  7  1  0
  5  9  1  0
  5  6  1  0
  5 16  1  0
  8 20  1  0
  6  9  1  0
  9 21  1  0
  6 17  1  0
M  END
$$$$

     RDKit          3D

 19 20  0  0  0  0  0  0  0  0999 V2000
   -0.9729   -3.0362    0.3620 O   0  0  0  0  0  0  0  0  0  0  0  0
   -1.2387   -2.4586   -0.6669 C   0  0  0  0  0  0  0  0  0  0  0  0
   -1.3643   -1.1867   -1.0161 N   0  0  0  0  0  0  0  0  0  0  0  0
   -1.3297   -0.1790    0.0124 C   0  0  0  0  0  0  0  0  0  0  0  0
   -0.0197    0.5748   -0.4226 C   0  0  0  0  0  0  0  0  0  0  0  0
    0.8751    1.7659    0.2219 C   0  0  0  0  0  0  0  0  0  0  0  0
    0.6766    0.9258    1.4874 C   0  0  0  0  0  0  0  0  0  0  0  0
    1.1069   -0.2755    0.2949 N   0  0  0  0  0  0  0  0  0  0  0  0
    2.0811    0.9141   -0.0906 C   0  0  0  0  0  0  0  0  0  0  0  0
   -1.5442   -3.1892   -1.5113 H   0  0  0  0  0  0  0  0  0  0  0  0
   -1.8825   -0.9232   -1.8857 H   0  0  0  0  0  0  0  0  0  0  0  0
   -1.1037   -0.5901    0.9868 H   0  0  0  0  0  0  0  0  0  0  0  0
   -2.2358    0.4534   -0.0552 H   0  0  0  0  0  0  0  0  0  0  0  0
   -0.0424    0.7863   -1.5234 H   0  0  0  0  0  0  0  0  0  0  0  0
    0.7403    2.8626    0.1230 H   0  0  0  0  0  0  0  0  0  0  0  0
   -0.4517    1.0799    1.8155 H   0  0  0  0  0  0  0  0  0  0  0  0
    1.3125    0.8128    2.3804 H   0  0  0  0  0  0  0  0  0  0  0  0
    2.9849    0.8259    0.6163 H   0  0  0  0  0  0  0  0  0  0  0  0
    2.4081    0.8370   -1.1289 H   0  0  0  0  0  0  0  0  0  0  0  0
  7 16  1  0
  7 17  1  0
  7  8  1  0
  6  7  1  0
  3 11  1  0
  8  9  1  0
  5  8  1  0
  9 19  1  0
  4 13  1  0
  2 10  1  0
  2  3  1  0
  3  4  1  0
  6  9  1  0
  9 18  1  0
  1  2  2  0
  4  5  1  0
  4 12  1  0
  5  6  1  0
  6 15  1  0
  5 14  1  0
M  END
$$$$

     RDKit          3D

 16 16  0  0  0  0  0  0  0  0999 V2000
    0.9902    2.5660   -0.2705 O   0  0  0  0  0  0  0  0  0  0  0  0
    0.9724    1.3581    0.5127 C   0  0  0  0  0  0  0  0  0  0  0  0
   -0.3848    0.6583    0.4882 C   0  0  0  0  0  0  0  0  0  0  0  0
   -1.0370    0.7998   -0.8121 N   0  0  0  0  0  0  0  0  0  0  0  0
   -0.7378   -0.4463   -1.2595 C   0  0  0  0  0  0  0  0  0  0  0  0
   -1.1800   -1.0238   -2.2476 O   0  0  0  0  0  0  0  0  0  0  0  0
   -0.1110   -0.8812    0.1037 C   0  0  0  0  0  0  0  0  0  0  0  0
   -0.7917   -2.0572    0.5820 C   0  0  0  0  0  0  0  0  0  0  0  0
   -0.8733   -3.2427    0.8237 C   0  0  0  0  0  0  0  0  0  0  0  0
    1.9311    2.8358   -0.4053 H   0  0  0  0  0  0  0  0  0  0  0  0
    1.6953    0.7179   -0.0382 H   0  0  0  0  0  0  0  0  0  0  0  0
    1.3414    1.6041    1.5245 H   0  0  0  0  0  0  0  0  0  0  0  0
   -1.0614    0.9249    1.3073 H   0  0  0  0  0  0  0  0  0  0  0  0
   -1.0928    1.5948   -1.4719 H   0  0  0  0  0  0  0  0  0  0  0  0
    0.9487   -1.1278    0.1362 H   0  0  0  0  0  0  0  0  0  0  0  0
   -0.6092   -4.2806    1.0267 H   0  0  0  0  0  0  0  0  0  0  0  0
  5  6  2  0
  4 14  1  0
  4  5  1  0
  5  7  1  0
  3  4  1  0
  2 11  1  0
  1 10  1  0
  1  2  1  0
  2  3  1  0
  2 12  1  0
  3  7  1  0
  3 13  1  0
  7  8  1  0
  7 15  1  0
  8  9  3  0
  9 16  1  0
M  END
$$$$

     RDKit          3D

 19 22  0  0  0  0  0  0  0  0999 V2000
   -0.7320    0.9028   -1.3434 C   0  0  0  0  0  0  0  0  0  0  0  0
   -1.1661   -0.6912   -0.5296 C   0  0  0  0  0  0  0  0  0  0  0  0
   -1.0841   -0.7341    0.8589 C   0  0  0  0  0  0  0  0  0  0  0  0
   -0.1607    0.4517    1.5910 C   0  0  0  0  0  0  0  0  0  0  0  0
    0.7236    0.7263    0.3438 C   0  0  0  0  0  0  0  0  0  0  0  0
    0.9203   -0.5891   -1.1304 O   0  0  0  0  0  0  0  0  0  0  0  0
    0.9396    1.0040   -1.1841 C   0  0  0  0  0  0  0  0  0  0  0  0
    1.7563   -0.4571    0.0011 C   0  0  0  0  0  0  0  0  0  0  0  0
    0.1390   -1.5012    0.3659 C   0  0  0  0  0  0  0  0  0  0  0  0
   -1.2154    0.7851   -2.4334 H   0  0  0  0  0  0  0  0  0  0  0  0
   -1.4516    1.8538   -0.8116 H   0  0  0  0  0  0  0  0  0  0  0  0
   -1.5820   -1.3669   -1.2572 H   0  0  0  0  0  0  0  0  0  0  0  0
   -1.6899   -1.1781    1.7846 H   0  0  0  0  0  0  0  0  0  0  0  0
    0.2528    0.1778    2.5586 H   0  0  0  0  0  0  0  0  0  0  0  0
   -1.1506    1.5724    1.5022 H   0  0  0  0  0  0  0  0  0  0  0  0
    1.3301    0.5219    1.1807 H   0  0  0  0  0  0  0  0  0  0  0  0
    1.4701    1.5107   -2.0942 H   0  0  0  0  0  0  0  0  0  0  0  0
    2.3841   -0.4913    0.6962 H   0  0  0  0  0  0  0  0  0  0  0  0
    0.3165   -2.4977   -0.0991 H   0  0  0  0  0  0  0  0  0  0  0  0
  1 11  1  0
  7 17  1  0
  9 19  1  0
  2 12  1  0
  1  7  1  0
  1  2  1  0
  1 10  1  0
  8 18  1  0
  7  8  1  0
  6  7  1  0
  2  9  1  0
  2  3  1  0
  8  9  1  0
  3  9  1  0
  5  8  1  0
  3 13  1  0
  3  4  1  0
  5  6  1  0
  5 16  1  0
  4  5  1  0
  4 15  1  0
  4 14  1  0
M  END
$$$$

     RDKit          3D

 16 16  0  0  0  0  0  0  0  0999 V2000
    1.6878   -0.0801   -1.7676 N   0  0  0  0  0  0  0  0  0  0  0  0
   -2.6588    0.5809   -0.4252 H   0  0  0  0  0  0  0  0  0  0  0  0
    2.6358   -0.4005   -1.5858 H   0  0  0  0  0  0  0  0  0  0  0  0
    1.6928    0.9481   -1.6984 H   0  0  0  0  0  0  0  0  0  0  0  0
    0.8145   -0.6755   -0.7422 C   0  0  0  0  0  0  0  0  0  0  0  0
    0.6151    0.3090    0.3531 C   0  0  0  0  0  0  0  0  0  0  0  0
   -0.3376    1.3778    0.2309 N   0  0  0  0  0  0  0  0  0  0  0  0
   -0.6726    0.3020    1.2006 C   0  0  0  0  0  0  0  0  0  0  0  0
   -1.7054   -0.7008    0.8754 C   0  0  0  0  0  0  0  0  0  0  0  0
   -1.5658   -1.8909    1.1443 O   0  0  0  0  0  0  0  0  0  0  0  0
   -2.7633   -0.2647    0.1103 O   0  0  0  0  0  0  0  0  0  0  0  0
    1.3061   -1.5567   -0.3585 H   0  0  0  0  0  0  0  0  0  0  0  0
   -0.1357   -0.9753   -1.2376 H   0  0  0  0  0  0  0  0  0  0  0  0
    1.5436    0.3720    0.9275 H   0  0  0  0  0  0  0  0  0  0  0  0
    0.0165    2.2275    0.7018 H   0  0  0  0  0  0  0  0  0  0  0  0
   -0.4731    0.4272    2.2714 H   0  0  0  0  0  0  0  0  0  0  0  0
  1  4  1  0
  7 15  1  0
  1  3  1  0
  5 13  1  0
  1  5  1  0
  6  7  1  0
  7  8  1  0
  5  6  1  0
  5 12  1  0
  6 14  1  0
  6  8  1  0
  2 11  1  0
  8 16  1  0
  8  9  1  0
  9 11  1  0
  9 10  2  0
M  END
$$$$

     RDKit          3D

 18 20  0  0  0  0  0  0  0  0999 V2000
    1.5590    0.2401   -0.8956 C   0  0  0  0  0  0  0  0  0  0  0  0
    1.5955   -0.8827    0.1529 C   0  0  0  0  0  0  0  0  0  0  0  0
    0.1697   -0.5046    0.5468 C   0  0  0  0  0  0  0  0  0  0  0  0
   -0.1337    0.9575    0.9638 C   0  0  0  0  0  0  0  0  0  0  0  0
   -1.1233    0.7641   -0.1844 C   0  0  0  0  0  0  0  0  0  0  0  0
   -2.0119   -0.4532    0.2985 C   0  0  0  0  0  0  0  0  0  0  0  0
   -0.9703   -1.3419    0.7590 O   0  0  0  0  0  0  0  0  0  0  0  0
    0.0242    0.0640   -0.9620 C   0  0  0  0  0  0  0  0  0  0  0  0
    2.0881   -0.0119   -1.8488 H   0  0  0  0  0  0  0  0  0  0  0  0
    1.9659    1.1896   -0.5516 H   0  0  0  0  0  0  0  0  0  0  0  0
    1.5856   -1.9093   -0.2857 H   0  0  0  0  0  0  0  0  0  0  0  0
    2.3649   -0.7551    0.9089 H   0  0  0  0  0  0  0  0  0  0  0  0
   -0.5921    1.0418    1.9547 H   0  0  0  0  0  0  0  0  0  0  0  0
    0.6693    1.7224    0.9197 H   0  0  0  0  0  0  0  0  0  0  0  0
   -1.6626    1.6169   -0.5923 H   0  0  0  0  0  0  0  0  0  0  0  0
   -2.6970   -0.1800    1.0900 H   0  0  0  0  0  0  0  0  0  0  0  0
   -2.5140   -0.8765   -0.5747 H   0  0  0  0  0  0  0  0  0  0  0  0
   -0.3172   -0.6811   -1.6992 H   0  0  0  0  0  0  0  0  0  0  0  0
  1 10  1  0
  8 18  1  0
  2 11  1  0
  1  8  1  0
  1  2  1  0
  1  9  1  0
  3  8  1  0
  5  8  1  0
  2 12  1  0
  2  3  1  0
  4 13  1  0
  3  4  1  0
  3  7  1  0
  5 15  1  0
  4  5  1  0
  5  6  1  0
  4 14  1  0
  6  7  1  0
  6 16  1  0
  6 17  1  0
M  END
$$$$

     RDKit          3D

 14 14  0  0  0  0  0  0  0  0999 V2000
    2.7871    2.1990    0.0890 N   0  0  0  0  0  0  0  0  0  0  0  0
    1.8646    1.1098    0.3930 C   0  0  0  0  0  0  0  0  0  0  0  0
    0.8187    1.0283   -0.5787 O   0  0  0  0  0  0  0  0  0  0  0  0
   -0.0578    0.0451   -0.3754 C   0  0  0  0  0  0  0  0  0  0  0  0
   -0.0392   -1.1076    0.3852 C   0  0  0  0  0  0  0  0  0  0  0  0
   -1.3123   -1.7419    0.2447 C   0  0  0  0  0  0  0  0  0  0  0  0
   -2.0660   -0.9687   -0.6058 C   0  0  0  0  0  0  0  0  0  0  0  0
   -1.2842    0.0837   -1.0134 N   0  0  0  0  0  0  0  0  0  0  0  0
    3.3805    2.3696    0.9209 H   0  0  0  0  0  0  0  0  0  0  0  0
    1.3921    1.3346    1.3597 H   0  0  0  0  0  0  0  0  0  0  0  0
    0.7831   -1.4701    0.9861 H   0  0  0  0  0  0  0  0  0  0  0  0
   -1.6366   -2.6444    0.7498 H   0  0  0  0  0  0  0  0  0  0  0  0
   -3.0662   -1.0637   -0.9338 H   0  0  0  0  0  0  0  0  0  0  0  0
   -1.5638    0.8264   -1.6212 H   0  0  0  0  0  0  0  0  0  0  0  0
  2 10  1  0
  6 12  1  0
  1  9  1  0
  5 11  1  0
  5  6  1  0
  6  7  2  0
  4  5  2  0
  1  2  1  0
  2  3  1  0
  7 13  1  0
  7  8  1  0
  4  8  1  0
  3  4  1  0
  8 14  1  0
M  END
$$$$

     RDKit          3D

 14 15  0  0  0  0  0  0  0  0999 V2000
    0.8855    1.5306   -1.6077 N   0  0  0  0  0  0  0  0  0  0  0  0
    1.0668    0.9000   -0.3069 C   0  0  0  0  0  0  0  0  0  0  0  0
    1.5376   -0.4707   -0.5009 N   0  0  0  0  0  0  0  0  0  0  0  0
    0.1804   -1.0154   -0.2685 C   0  0  0  0  0  0  0  0  0  0  0  0
    0.1665   -2.0772    0.7249 C   0  0  0  0  0  0  0  0  0  0  0  0
    0.1218   -2.9298    1.5114 N   0  0  0  0  0  0  0  0  0  0  0  0
   -0.1632    0.3199    0.2528 C   0  0  0  0  0  0  0  0  0  0  0  0
   -1.1754    0.8285    1.2074 C   0  0  0  0  0  0  0  0  0  0  0  0
   -1.4148    0.8677   -0.2060 O   0  0  0  0  0  0  0  0  0  0  0  0
    0.0011    2.0477   -1.6636 H   0  0  0  0  0  0  0  0  0  0  0  0
    1.8713   -0.6004   -1.4524 H   0  0  0  0  0  0  0  0  0  0  0  0
   -0.3465   -1.2886   -1.1904 H   0  0  0  0  0  0  0  0  0  0  0  0
   -0.9843    1.7678    1.7076 H   0  0  0  0  0  0  0  0  0  0  0  0
   -1.7470    0.1198    1.7925 H   0  0  0  0  0  0  0  0  0  0  0  0
  1 10  1  0
  1  2  1  0
  7  9  1  0
  8  9  1  0
  2  7  1  0
  2  3  1  0
  4 12  1  0
  7  8  1  0
  4  7  1  0
  3 11  1  0
  8 14  1  0
  3  4  1  0
  8 13  1  0
  4  5  1  0
  5  6  3  0
M  END
$$$$

     RDKit          3D

 16 15  0  0  0  0  0  0  0  0999 V2000
    0.6183    3.3275    1.0892 O   0  0  0  0  0  0  0  0  0  0  0  0
    1.0575    2.0290    1.4760 C   0  0  0  0  0  0  0  0  0  0  0  0
    0.0506    1.0263    1.0085 C   0  0  0  0  0  0  0  0  0  0  0  0
   -0.5171    0.2474    0.2814 C   0  0  0  0  0  0  0  0  0  0  0  0
   -0.8169   -0.6800   -0.8552 C   0  0  0  0  0  0  0  0  0  0  0  0
   -0.0082   -2.0384   -0.7962 C   0  0  0  0  0  0  0  0  0  0  0  0
    1.1477   -2.0001    0.0333 O   0  0  0  0  0  0  0  0  0  0  0  0
   -2.2547   -0.9640   -1.1664 C   0  0  0  0  0  0  0  0  0  0  0  0
   -3.3011   -1.1923   -1.6399 N   0  0  0  0  0  0  0  0  0  0  0  0
    0.6779    3.3664    0.1087 H   0  0  0  0  0  0  0  0  0  0  0  0
    2.0133    1.8242    0.9395 H   0  0  0  0  0  0  0  0  0  0  0  0
    1.2643    2.0357    2.5678 H   0  0  0  0  0  0  0  0  0  0  0  0
   -0.4829   -0.1320   -1.7397 H   0  0  0  0  0  0  0  0  0  0  0  0
    0.3464   -2.3156   -1.7915 H   0  0  0  0  0  0  0  0  0  0  0  0
   -0.6680   -2.8643   -0.4366 H   0  0  0  0  0  0  0  0  0  0  0  0
    0.8726   -1.6698    0.9211 H   0  0  0  0  0  0  0  0  0  0  0  0
  6 14  1  0
  5 13  1  0
  1 10  1  0
  1  2  1  0
  2 11  1  0
  6  7  1  0
  7 16  1  0
  5  6  1  0
  6 15  1  0
  4  5  1  0
  5  8  1  0
  3  4  3  0
  2  3  1  0
  2 12  1  0
  8  9  3  0
M  END
$$$$

     RDKit          3D

 23 24  0  0  0  0  0  0  0  0999 V2000
   -0.3795    1.7494   -0.3444 C   0  0  0  0  0  0  0  0  0  0  0  0
    0.1914    1.1860    0.9777 C   0  0  0  0  0  0  0  0  0  0  0  0
   -1.3932    0.7291    1.2779 C   0  0  0  0  0  0  0  0  0  0  0  0
   -1.4359    0.6693   -0.3770 C   0  0  0  0  0  0  0  0  0  0  0  0
   -1.0894   -0.7717   -1.1379 C   0  0  0  0  0  0  0  0  0  0  0  0
    0.2089   -0.9381   -1.6127 C   0  0  0  0  0  0  0  0  0  0  0  0
    1.2019   -1.6146   -0.8095 C   0  0  0  0  0  0  0  0  0  0  0  0
    0.9093   -1.3853    0.7254 C   0  0  0  0  0  0  0  0  0  0  0  0
    1.4396    0.2096    1.0208 C   0  0  0  0  0  0  0  0  0  0  0  0
    0.2424    1.8617   -1.2356 H   0  0  0  0  0  0  0  0  0  0  0  0
   -0.8522    2.7209   -0.2681 H   0  0  0  0  0  0  0  0  0  0  0  0
    0.6149    2.2053    1.3106 H   0  0  0  0  0  0  0  0  0  0  0  0
   -1.1187    0.1693    2.3137 H   0  0  0  0  0  0  0  0  0  0  0  0
   -2.1862   -0.0836    1.4909 H   0  0  0  0  0  0  0  0  0  0  0  0
   -2.4708    0.9138   -0.6416 H   0  0  0  0  0  0  0  0  0  0  0  0
   -1.7742   -0.6559   -1.9961 H   0  0  0  0  0  0  0  0  0  0  0  0
    0.4715   -0.5180   -2.6727 H   0  0  0  0  0  0  0  0  0  0  0  0
    1.1376   -2.7257   -1.0378 H   0  0  0  0  0  0  0  0  0  0  0  0
    2.3106   -1.4897   -0.7376 H   0  0  0  0  0  0  0  0  0  0  0  0
   -0.0241   -1.0034    1.1913 H   0  0  0  0  0  0  0  0  0  0  0  0
   -0.1218   -2.1573    0.5744 H   0  0  0  0  0  0  0  0  0  0  0  0
    2.1746    0.3783    1.8906 H   0  0  0  0  0  0  0  0  0  0  0  0
    1.9432    0.5505    0.0975 H   0  0  0  0  0  0  0  0  0  0  0  0
  7 18  1  0
  8 20  1  0
  6 17  1  0
  7 19  1  0
  7  8  1  0
  6  7  1  0
  8 21  1  0
  8  9  1  0
  5  6  2  3
  9 23  1  0
  9 22  1  0
  2  9  1  0
  5 16  1  0
  4  5  1  0
  1 11  1  0
  1  4  1  0
  1  2  1  0
  1 10  1  0
  4 15  1  0
  3  4  1  0
  2  3  1  0
  2 12  1  0
  3 13  1  0
  3 14  1  0
M  END
$$$$

     RDKit          3D

 13 13  0  0  0  0  0  0  0  0999 V2000
   -0.2283    1.6862    1.3080 C   0  0  0  0  0  0  0  0  0  0  0  0
   -0.0179    0.2326    1.0590 C   0  0  0  0  0  0  0  0  0  0  0  0
    0.0076   -0.5058    2.0423 O   0  0  0  0  0  0  0  0  0  0  0  0
    0.2029   -0.1791   -0.2976 C   0  0  0  0  0  0  0  0  0  0  0  0
    0.1825   -1.3849   -0.9277 C   0  0  0  0  0  0  0  0  0  0  0  0
   -0.1580   -2.5482   -0.3234 O   0  0  0  0  0  0  0  0  0  0  0  0
    0.4002   -1.2234   -2.2496 N   0  0  0  0  0  0  0  0  0  0  0  0
    0.5767    0.0697   -2.4469 N   0  0  0  0  0  0  0  0  0  0  0  0
    0.4573    0.7557   -1.2559 O   0  0  0  0  0  0  0  0  0  0  0  0
   -0.4731    2.2812    0.4375 H   0  0  0  0  0  0  0  0  0  0  0  0
    0.6759    2.2214    1.7450 H   0  0  0  0  0  0  0  0  0  0  0  0
   -1.1791    1.7912    1.9157 H   0  0  0  0  0  0  0  0  0  0  0  0
   -0.4467   -3.1966   -1.0065 H   0  0  0  0  0  0  0  0  0  0  0  0
  7  8  2  0
  8  9  1  0
  5  7  1  0
  4  9  1  0
  4  5  2  0
  5  6  1  0
  2  4  1  0
  6 13  1  0
  1 11  1  0
  1 10  1  0
  1  2  1  0
  2  3  2  0
  1 12  1  0
M  END
$$$$

     RDKit          3D

 19 19  0  0  0  0  0  0  0  0999 V2000
    0.8378    2.7142    0.6686 C   0  0  0  0  0  0  0  0  0  0  0  0
    0.6451    1.7539   -0.3492 O   0  0  0  0  0  0  0  0  0  0  0  0
    0.0153    0.5805    0.1340 C   0  0  0  0  0  0  0  0  0  0  0  0
   -1.0157    0.1079   -0.8927 C   0  0  0  0  0  0  0  0  0  0  0  0
   -0.6537   -1.3385   -1.1843 C   0  0  0  0  0  0  0  0  0  0  0  0
    0.3704   -1.6940   -0.1501 C   0  0  0  0  0  0  0  0  0  0  0  0
   -0.0556   -2.5823    0.9627 C   0  0  0  0  0  0  0  0  0  0  0  0
   -1.1805   -3.0767    1.0520 O   0  0  0  0  0  0  0  0  0  0  0  0
    1.0371   -0.5923    0.2418 C   0  0  0  0  0  0  0  0  0  0  0  0
    1.0836    3.6612    0.1470 H   0  0  0  0  0  0  0  0  0  0  0  0
   -0.0879    2.8301    1.2446 H   0  0  0  0  0  0  0  0  0  0  0  0
    1.6833    2.4171    1.3015 H   0  0  0  0  0  0  0  0  0  0  0  0
   -0.4752    0.8016    1.0817 H   0  0  0  0  0  0  0  0  0  0  0  0
   -0.9775    0.6661   -1.8038 H   0  0  0  0  0  0  0  0  0  0  0  0
   -2.0437    0.2068   -0.4825 H   0  0  0  0  0  0  0  0  0  0  0  0
   -1.5401   -2.0210   -1.1649 H   0  0  0  0  0  0  0  0  0  0  0  0
   -0.2325   -1.3722   -2.1972 H   0  0  0  0  0  0  0  0  0  0  0  0
    0.6598   -2.7351    1.7592 H   0  0  0  0  0  0  0  0  0  0  0  0
    1.9301   -0.3272   -0.3684 H   0  0  0  0  0  0  0  0  0  0  0  0
  7  8  2  0
  7 18  1  0
  6  7  1  0
  6  9  2  0
  5  6  1  0
  5 16  1  0
  9 19  1  0
  3  9  1  0
  5 17  1  0
  4  5  1  0
  3 13  1  0
  3  4  1  0
  2  3  1  0
  4 14  1  0
  4 15  1  0
  1 11  1  0
  1 10  1  0
  1  2  1  0
  1 12  1  0
M  END
$$$$

     RDKit          3D

 17 19  0  0  0  0  0  0  0  0999 V2000
   -0.1272    2.2127   -0.1764 C   0  0  0  0  0  0  0  0  0  0  0  0
   -0.1423    0.7272   -0.1956 C   0  0  0  0  0  0  0  0  0  0  0  0
    0.9430   -0.0432   -0.9256 C   0  0  0  0  0  0  0  0  0  0  0  0
    0.8321   -1.1296    0.2111 C   0  0  0  0  0  0  0  0  0  0  0  0
   -0.3377   -2.0046   -0.0256 N   0  0  0  0  0  0  0  0  0  0  0  0
   -1.5259   -1.3060    0.2283 C   0  0  0  0  0  0  0  0  0  0  0  0
   -2.6463   -1.7923    0.2623 O   0  0  0  0  0  0  0  0  0  0  0  0
   -1.1427    0.0128    0.5811 N   0  0  0  0  0  0  0  0  0  0  0  0
    0.2400   -0.0318    0.9953 C   0  0  0  0  0  0  0  0  0  0  0  0
    0.5161    2.6047   -0.9733 H   0  0  0  0  0  0  0  0  0  0  0  0
   -1.1354    2.5913   -0.3403 H   0  0  0  0  0  0  0  0  0  0  0  0
    0.2379    2.6078    0.7774 H   0  0  0  0  0  0  0  0  0  0  0  0
    1.9189    0.4636   -0.9811 H   0  0  0  0  0  0  0  0  0  0  0  0
    0.6489   -0.3824   -1.9356 H   0  0  0  0  0  0  0  0  0  0  0  0
    1.7347   -1.6390    0.5316 H   0  0  0  0  0  0  0  0  0  0  0  0
   -0.3709   -3.0095   -0.0929 H   0  0  0  0  0  0  0  0  0  0  0  0
    0.3569    0.1183    2.0593 H   0  0  0  0  0  0  0  0  0  0  0  0
  3 13  1  0
  4 15  1  0
  3 14  1  0
  3  4  1  0
  2  3  1  0
  1 11  1  0
  4  9  1  0
  4  5  1  0
  2  9  1  0
  1  2  1  0
  2  8  1  0
  9 17  1  0
  8  9  1  0
  1 10  1  0
  1 12  1  0
  5 16  1  0
  5  6  1  0
  6  8  1  0
  6  7  2  0
M  END
$$$$

     RDKit          3D

 15 15  0  0  0  0  0  0  0  0999 V2000
   -1.0443    2.3901    0.3811 C   0  0  0  0  0  0  0  0  0  0  0  0
   -0.2370    1.1674    0.2212 C   0  0  0  0  0  0  0  0  0  0  0  0
    1.0359    0.9641    0.5258 N   0  0  0  0  0  0  0  0  0  0  0  0
    1.2371   -0.3278    0.1489 C   0  0  0  0  0  0  0  0  0  0  0  0
    2.3977   -0.9800    0.3127 O   0  0  0  0  0  0  0  0  0  0  0  0
    0.0791   -0.9014   -0.3129 C   0  0  0  0  0  0  0  0  0  0  0  0
   -0.3310   -2.2372   -0.7510 C   0  0  0  0  0  0  0  0  0  0  0  0
   -0.8857    0.0736   -0.2876 O   0  0  0  0  0  0  0  0  0  0  0  0
   -0.8913    3.0595   -0.4630 H   0  0  0  0  0  0  0  0  0  0  0  0
   -0.7664    2.9388    1.2948 H   0  0  0  0  0  0  0  0  0  0  0  0
   -2.1092    2.1593    0.4342 H   0  0  0  0  0  0  0  0  0  0  0  0
    2.8662   -0.5239    1.0483 H   0  0  0  0  0  0  0  0  0  0  0  0
    0.4754   -2.9642   -0.5675 H   0  0  0  0  0  0  0  0  0  0  0  0
   -0.6143   -2.2608   -1.8115 H   0  0  0  0  0  0  0  0  0  0  0  0
   -1.2122   -2.5574   -0.1735 H   0  0  0  0  0  0  0  0  0  0  0  0
  5 12  1  0
  4  5  1  0
  3  4  1  0
  2  3  2  0
  1 10  1  0
  4  6  2  0
  1  2  1  0
  2  8  1  0
  1  9  1  0
  1 11  1  0
  6  8  1  0
  6  7  1  0
  7 15  1  0
  7 13  1  0
  7 14  1  0
M  END
$$$$

     RDKit          3D

 21 21  0  0  0  0  0  0  0  0999 V2000
    0.3727    3.3363    1.9497 C   0  0  0  0  0  0  0  0  0  0  0  0
   -0.2400    1.9644    1.5699 C   0  0  0  0  0  0  0  0  0  0  0  0
    0.0656    1.4743    0.2145 C   0  0  0  0  0  0  0  0  0  0  0  0
    0.5165    0.8011   -0.6999 C   0  0  0  0  0  0  0  0  0  0  0  0
    0.7874   -0.2461   -1.6694 C   0  0  0  0  0  0  0  0  0  0  0  0
   -0.1496   -0.7952   -2.4912 O   0  0  0  0  0  0  0  0  0  0  0  0
   -0.5155   -1.4421   -1.2434 C   0  0  0  0  0  0  0  0  0  0  0  0
   -1.0333   -2.7455   -1.8142 C   0  0  0  0  0  0  0  0  0  0  0  0
    0.1983   -1.6591    0.0876 C   0  0  0  0  0  0  0  0  0  0  0  0
   -0.0231    4.2449    1.4085 H   0  0  0  0  0  0  0  0  0  0  0  0
    0.0655    3.5406    3.0356 H   0  0  0  0  0  0  0  0  0  0  0  0
    1.4847    3.3888    1.9758 H   0  0  0  0  0  0  0  0  0  0  0  0
    0.2197    1.2767    2.3072 H   0  0  0  0  0  0  0  0  0  0  0  0
   -1.3934    2.0899    1.6877 H   0  0  0  0  0  0  0  0  0  0  0  0
    1.8019   -0.7179   -1.7985 H   0  0  0  0  0  0  0  0  0  0  0  0
   -1.8490   -2.5718   -2.5438 H   0  0  0  0  0  0  0  0  0  0  0  0
   -1.4233   -3.3327   -0.9517 H   0  0  0  0  0  0  0  0  0  0  0  0
   -0.2527   -3.2723   -2.3371 H   0  0  0  0  0  0  0  0  0  0  0  0
    0.1357   -2.7621    0.4643 H   0  0  0  0  0  0  0  0  0  0  0  0
    1.3377   -1.5089   -0.1910 H   0  0  0  0  0  0  0  0  0  0  0  0
   -0.1061   -1.0632    1.0393 H   0  0  0  0  0  0  0  0  0  0  0  0
  5  6  1  0
  6  7  1  0
  2 13  1  0
  1 11  1  0
  8 18  1  0
  8 16  1  0
  2  3  1  0
  1  2  1  0
  2 14  1  0
  1 10  1  0
  3  4  3  0
  1 12  1  0
  4  5  1  0
  5  7  1  0
  5 15  1  0
  7  8  1  0
  8 17  1  0
  7  9  1  0
  9 19  1  0
  9 21  1  0
  9 20  1  0
M  END
$$$$

     RDKit          3D

 18 22  0  0  0  0  0  0  0  0999 V2000
   -0.6837    1.4916    1.8382 C   0  0  0  0  0  0  0  0  0  0  0  0
   -0.8930    0.2520    1.1365 C   0  0  0  0  0  0  0  0  0  0  0  0
    0.4457    0.5230    1.6689 N   0  0  0  0  0  0  0  0  0  0  0  0
    1.2963    0.4593    0.3326 C   0  0  0  0  0  0  0  0  0  0  0  0
    0.5268    0.7546   -1.0590 C   0  0  0  0  0  0  0  0  0  0  0  0
    0.6584   -0.7974   -1.5432 C   0  0  0  0  0  0  0  0  0  0  0  0
   -0.9089   -0.9776   -1.3518 C   0  0  0  0  0  0  0  0  0  0  0  0
   -0.5978   -0.0968   -0.2285 C   0  0  0  0  0  0  0  0  0  0  0  0
    0.8175   -1.0210   -0.0448 C   0  0  0  0  0  0  0  0  0  0  0  0
   -0.5147    2.4748    1.4099 H   0  0  0  0  0  0  0  0  0  0  0  0
   -1.5878    1.4072    2.4647 H   0  0  0  0  0  0  0  0  0  0  0  0
   -1.4298   -0.5707    1.5303 H   0  0  0  0  0  0  0  0  0  0  0  0
    2.3217    0.5107    0.4838 H   0  0  0  0  0  0  0  0  0  0  0  0
    1.2296    1.2403   -1.8895 H   0  0  0  0  0  0  0  0  0  0  0  0
    1.2963   -1.1730   -2.3190 H   0  0  0  0  0  0  0  0  0  0  0  0
   -1.5518   -0.6332   -2.1575 H   0  0  0  0  0  0  0  0  0  0  0  0
   -1.3022   -1.9534   -0.9121 H   0  0  0  0  0  0  0  0  0  0  0  0
    0.8775   -1.8902    0.6407 H   0  0  0  0  0  0  0  0  0  0  0  0
  6 15  1  0
  7 17  1  0
  6  7  1  0
  5  6  1  0
  6  9  1  0
  5 14  1  0
  7 16  1  0
  7  8  1  0
  5  8  1  0
  4  5  1  0
  8  9  1  0
  4  9  1  0
  9 18  1  0
  4 13  1  0
  2  8  1  0
  3  4  1  0
  1 11  1  0
  2  3  1  0
  1  2  1  0
  2 12  1  0
  1  3  1  0
  1 10  1  0
M  END
$$$$

     RDKit          3D

 15 15  0  0  0  0  0  0  0  0999 V2000
   -1.1607   -2.0773    1.2572 O   0  0  0  0  0  0  0  0  0  0  0  0
   -1.0844   -0.8660    1.5131 C   0  0  0  0  0  0  0  0  0  0  0  0
   -0.4150    0.0264    0.4965 C   0  0  0  0  0  0  0  0  0  0  0  0
    1.1394   -0.1382    0.4646 C   0  0  0  0  0  0  0  0  0  0  0  0
    1.7271    0.8977   -0.1654 O   0  0  0  0  0  0  0  0  0  0  0  0
    0.9763    1.5745   -1.1273 C   0  0  0  0  0  0  0  0  0  0  0  0
    1.3180    2.6791   -1.4725 O   0  0  0  0  0  0  0  0  0  0  0  0
   -0.1987    0.9042   -1.6439 O   0  0  0  0  0  0  0  0  0  0  0  0
   -0.7794   -0.2791   -0.8811 C   0  0  0  0  0  0  0  0  0  0  0  0
   -1.4833   -0.4482    2.4163 H   0  0  0  0  0  0  0  0  0  0  0  0
   -0.6508    1.1115    0.8385 H   0  0  0  0  0  0  0  0  0  0  0  0
    1.4210   -0.8798   -0.3281 H   0  0  0  0  0  0  0  0  0  0  0  0
    1.3051   -1.0123    1.2490 H   0  0  0  0  0  0  0  0  0  0  0  0
   -1.8562   -0.3959   -1.2343 H   0  0  0  0  0  0  0  0  0  0  0  0
   -0.2584   -1.0966   -1.3827 H   0  0  0  0  0  0  0  0  0  0  0  0
  4 12  1  0
  4 13  1  0
  4  5  1  0
  3  4  1  0
  5  6  1  0
  3 11  1  0
  1  2  2  0
  2  3  1  0
  3  9  1  0
  2 10  1  0
  6  7  2  0
  6  8  1  0
  8  9  1  0
  9 14  1  0
  9 15  1  0
M  END
$$$$

     RDKit          3D

 15 15  0  0  0  0  0  0  0  0999 V2000
    0.7253   -2.5659   -0.2718 C   0  0  0  0  0  0  0  0  0  0  0  0
   -0.2291   -1.8576   -0.1283 C   0  0  0  0  0  0  0  0  0  0  0  0
   -1.4285   -1.0071   -0.1105 C   0  0  0  0  0  0  0  0  0  0  0  0
   -1.2389    0.1525   -0.9651 N   0  0  0  0  0  0  0  0  0  0  0  0
   -0.8445    1.4002   -0.3236 C   0  0  0  0  0  0  0  0  0  0  0  0
    0.1190    1.2551    0.8577 C   0  0  0  0  0  0  0  0  0  0  0  0
    1.1968    1.3246   -0.1843 C   0  0  0  0  0  0  0  0  0  0  0  0
    0.2566    2.0173   -1.0622 O   0  0  0  0  0  0  0  0  0  0  0  0
    1.6333   -3.1235   -0.5303 H   0  0  0  0  0  0  0  0  0  0  0  0
   -2.2647   -1.5896   -0.5987 H   0  0  0  0  0  0  0  0  0  0  0  0
   -1.7895   -0.7131    0.8749 H   0  0  0  0  0  0  0  0  0  0  0  0
    0.1484    2.1632    1.4486 H   0  0  0  0  0  0  0  0  0  0  0  0
    0.1025    0.3411    1.5056 H   0  0  0  0  0  0  0  0  0  0  0  0
    1.4726    0.3316   -0.5601 H   0  0  0  0  0  0  0  0  0  0  0  0
    2.1405    1.8712    0.0480 H   0  0  0  0  0  0  0  0  0  0  0  0
  7 14  1  0
  6 12  1  0
  6  7  1  0
  7 15  1  0
  7  8  1  0
  6 13  1  0
  5  6  1  0
  5  8  1  0
  1  9  1  0
  4  5  1  0
  1  2  3  0
  3  4  1  0
  2  3  1  0
  3 11  1  0
  3 10  1  0
M  END
$$$$

     RDKit          3D

 16 16  0  0  0  0  0  0  0  0999 V2000
   -1.4037    1.3895   -0.6993 C   0  0  0  0  0  0  0  0  0  0  0  0
   -0.5497    0.2211   -0.3302 C   0  0  0  0  0  0  0  0  0  0  0  0
    0.4756    0.2387    0.5375 C   0  0  0  0  0  0  0  0  0  0  0  0
    0.9145    1.3542    1.2448 N   0  0  0  0  0  0  0  0  0  0  0  0
    1.2273   -1.0499    0.7840 C   0  0  0  0  0  0  0  0  0  0  0  0
    2.1975   -1.0657    1.5411 O   0  0  0  0  0  0  0  0  0  0  0  0
    0.7908   -2.1590    0.1113 N   0  0  0  0  0  0  0  0  0  0  0  0
   -0.2464   -2.1964   -0.7702 N   0  0  0  0  0  0  0  0  0  0  0  0
   -0.8657   -1.0781   -0.9642 C   0  0  0  0  0  0  0  0  0  0  0  0
   -2.1934    1.5324    0.0465 H   0  0  0  0  0  0  0  0  0  0  0  0
   -0.8113    2.3127   -0.7676 H   0  0  0  0  0  0  0  0  0  0  0  0
   -1.8754    1.2481   -1.6802 H   0  0  0  0  0  0  0  0  0  0  0  0
    1.8270    1.1552    1.6683 H   0  0  0  0  0  0  0  0  0  0  0  0
    0.9365    2.1995    0.6800 H   0  0  0  0  0  0  0  0  0  0  0  0
    1.2926   -3.0278    0.2660 H   0  0  0  0  0  0  0  0  0  0  0  0
   -1.7162   -1.0744   -1.6678 H   0  0  0  0  0  0  0  0  0  0  0  0
  1 11  1  0
  4 13  1  0
  9 16  1  0
  8  9  2  0
  7  8  1  0
  4 14  1  0
  2  9  1  0
  7 15  1  0
  5  7  1  0
  1  2  1  0
  2  3  2  0
  1 10  1  0
  1 12  1  0
  5  6  2  0
  3  5  1  0
  3  4  1  0
M  END
$$$$

     RDKit          3D

 21 23  0  0  0  0  0  0  0  0999 V2000
   -0.0526    0.9785   -1.8690 C   0  0  0  0  0  0  0  0  0  0  0  0
   -1.0979    1.0231   -0.8242 C   0  0  0  0  0  0  0  0  0  0  0  0
    0.2757    1.4247    0.3306 C   0  0  0  0  0  0  0  0  0  0  0  0
    1.6725    0.0528    0.7256 C   0  0  0  0  0  0  0  0  0  0  0  0
    1.0947   -1.7366    1.1171 C   0  0  0  0  0  0  0  0  0  0  0  0
   -0.5414   -1.7481    1.0472 C   0  0  0  0  0  0  0  0  0  0  0  0
   -0.4249   -0.3875    1.5128 C   0  0  0  0  0  0  0  0  0  0  0  0
    0.3259    0.0612    0.2570 C   0  0  0  0  0  0  0  0  0  0  0  0
    0.0746   -0.5621   -1.5359 C   0  0  0  0  0  0  0  0  0  0  0  0
   -0.3008    0.7809   -3.1135 H   0  0  0  0  0  0  0  0  0  0  0  0
    0.8855    1.5167   -1.7255 H   0  0  0  0  0  0  0  0  0  0  0  0
   -1.6732    1.5400   -1.6247 H   0  0  0  0  0  0  0  0  0  0  0  0
   -1.7193    1.6933   -0.2340 H   0  0  0  0  0  0  0  0  0  0  0  0
   -0.5245    1.6962    1.4801 H   0  0  0  0  0  0  0  0  0  0  0  0
    2.7450    0.2469    0.2637 H   0  0  0  0  0  0  0  0  0  0  0  0
    1.3473   -1.9067    2.2612 H   0  0  0  0  0  0  0  0  0  0  0  0
   -1.3619   -1.6769    0.3135 H   0  0  0  0  0  0  0  0  0  0  0  0
    0.0129   -0.0335    2.6597 H   0  0  0  0  0  0  0  0  0  0  0  0
   -1.4366   -0.4902    1.9606 H   0  0  0  0  0  0  0  0  0  0  0  0
   -0.2574   -1.6504   -0.8607 H   0  0  0  0  0  0  0  0  0  0  0  0
    0.9564   -0.8224   -2.1417 H   0  0  0  0  0  0  0  0  0  0  0  0
  1 11  1  0
  4 15  1  0
  1 10  1  0
  1  9  1  0
  1  2  1  0
  9 21  1  0
  2 12  1  0
  4  5  1  0
  4  8  1  0
  3  4  1  0
  8  9  1  0
  9 20  1  0
  2  3  1  0
  2 13  1  0
  5 16  1  0
  5  6  2  0
  3  8  1  0
  7  8  1  0
  3 14  1  0
  7 18  1  0
  6  7  1  0
  6 17  1  0
  7 19  1  0
M  END
$$$$

     RDKit          3D

 18 18  0  0  0  0  0  0  0  0999 V2000
    0.6765   -1.5452   -1.6158 F   0  0  0  0  0  0  0  0  0  0  0  0
    1.5028   -0.5675   -1.1810 C   0  0  0  0  0  0  0  0  0  0  0  0
    1.8559    0.1861   -2.2475 F   0  0  0  0  0  0  0  0  0  0  0  0
    2.6310   -1.1452   -0.7144 F   0  0  0  0  0  0  0  0  0  0  0  0
    0.8476    0.2942   -0.1106 C   0  0  0  0  0  0  0  0  0  0  0  0
   -0.3994    1.0146   -0.6519 C   0  0  0  0  0  0  0  0  0  0  0  0
   -1.4881    0.7322    0.3681 C   0  0  0  0  0  0  0  0  0  0  0  0
   -1.1341   -0.6400    0.9077 C   0  0  0  0  0  0  0  0  0  0  0  0
    0.3711   -0.5408    1.0848 C   0  0  0  0  0  0  0  0  0  0  0  0
    1.5878    1.0245    0.2320 H   0  0  0  0  0  0  0  0  0  0  0  0
   -0.2231    2.0956   -0.7435 H   0  0  0  0  0  0  0  0  0  0  0  0
   -0.6825    0.6608   -1.6418 H   0  0  0  0  0  0  0  0  0  0  0  0
   -2.4899    0.7601   -0.0676 H   0  0  0  0  0  0  0  0  0  0  0  0
   -1.4507    1.4737    1.1779 H   0  0  0  0  0  0  0  0  0  0  0  0
   -1.3908   -1.4108    0.1707 H   0  0  0  0  0  0  0  0  0  0  0  0
   -1.6463   -0.8762    1.8501 H   0  0  0  0  0  0  0  0  0  0  0  0
    0.5858    0.0043    2.0127 H   0  0  0  0  0  0  0  0  0  0  0  0
    0.8464   -1.5204    1.1701 H   0  0  0  0  0  0  0  0  0  0  0  0
  2  4  1  0
  2  3  1  0
  1  2  1  0
  2  5  1  0
  6 12  1  0
  5 10  1  0
  6 11  1  0
  5  6  1  0
  5  9  1  0
  6  7  1  0
  9 17  1  0
  9 18  1  0
  8  9  1  0
  7 14  1  0
  7 13  1  0
  7  8  1  0
  8 16  1  0
  8 15  1  0
M  END
$$$$

     RDKit          3D

 11 10  0  0  0  0  0  0  0  0999 V2000
    1.2541    0.7264   -0.0363 C   0  0  0  0  0  0  0  0  0  0  0  0
    0.4606   -0.5279    0.2156 C   0  0  0  0  0  0  0  0  0  0  0  0
    0.9234   -1.4636    0.8696 O   0  0  0  0  0  0  0  0  0  0  0  0
   -0.9451   -0.5765   -0.3551 C   0  0  0  0  0  0  0  0  0  0  0  0
   -1.7451    0.5017    0.0987 O   0  0  0  0  0  0  0  0  0  0  0  0
    2.3219    0.4832   -0.0572 H   0  0  0  0  0  0  0  0  0  0  0  0
    0.9734    1.1634   -1.0014 H   0  0  0  0  0  0  0  0  0  0  0  0
    1.0506    1.4474    0.7639 H   0  0  0  0  0  0  0  0  0  0  0  0
   -1.4207   -1.5187   -0.0696 H   0  0  0  0  0  0  0  0  0  0  0  0
   -0.8732   -0.5385   -1.4477 H   0  0  0  0  0  0  0  0  0  0  0  0
   -1.9999    0.3033    1.0196 H   0  0  0  0  0  0  0  0  0  0  0  0
  1  2  1  0
  1  6  1  0
  1  7  1  0
  1  8  1  0
  2  3  2  0
  2  4  1  0
  4  5  1  0
  4  9  1  0
  4 10  1  0
  5 11  1  0
M  END
$$$$

     RDKit          3D

 12 12  0  0  0  0  0  0  0  0999 V2000
    0.2355    1.7345    0.8083 O   0  0  0  0  0  0  0  0  0  0  0  0
   -0.3800    0.8555   -0.1549 C   0  0  0  0  0  0  0  0  0  0  0  0
   -0.2136    1.3669   -1.5303 C   0  0  0  0  0  0  0  0  0  0  0  0
   -0.1376    1.8417   -2.5834 N   0  0  0  0  0  0  0  0  0  0  0  0
    0.1003   -0.5455    0.0141 C   0  0  0  0  0  0  0  0  0  0  0  0
    0.7242   -1.2447   -0.9400 N   0  0  0  0  0  0  0  0  0  0  0  0
    0.9688   -2.4933   -0.3799 O   0  0  0  0  0  0  0  0  0  0  0  0
    0.4918   -2.5585    0.9254 N   0  0  0  0  0  0  0  0  0  0  0  0
   -0.0185   -1.3512    1.1554 C   0  0  0  0  0  0  0  0  0  0  0  0
    0.1272    2.6474    0.4839 H   0  0  0  0  0  0  0  0  0  0  0  0
   -1.4522    0.8763    0.0767 H   0  0  0  0  0  0  0  0  0  0  0  0
   -0.4460   -1.1290    2.1246 H   0  0  0  0  0  0  0  0  0  0  0  0
  1  2  1  0
  1 10  1  0
  2  3  1  0
  2  5  1  0
  2 11  1  0
  3  4  3  0
  5  6  2  0
  5  9  1  0
  6  7  1  0
  7  8  1  0
  8  9  2  0
  9 12  1  0
M  END
$$$$

     RDKit          3D

 16 17  0  0  0  0  0  0  0  0999 V2000
   -0.8684   -3.4206    0.1432 O   0  0  0  0  0  0  0  0  0  0  0  0
   -0.5545   -2.2517    0.1315 C   0  0  0  0  0  0  0  0  0  0  0  0
   -1.1710   -0.9009   -0.3194 C   0  0  0  0  0  0  0  0  0  0  0  0
    0.1641   -0.3769    0.1525 C   0  0  0  0  0  0  0  0  0  0  0  0
    0.1387    0.8081    1.1075 C   0  0  0  0  0  0  0  0  0  0  0  0
    0.4827    1.7074   -0.1010 C   0  0  0  0  0  0  0  0  0  0  0  0
    0.9648    0.4443   -0.8492 C   0  0  0  0  0  0  0  0  0  0  0  0
    0.6030   -1.6753    0.5709 O   0  0  0  0  0  0  0  0  0  0  0  0
   -2.0516   -0.6099    0.2589 H   0  0  0  0  0  0  0  0  0  0  0  0
   -1.3751   -0.8445   -1.3913 H   0  0  0  0  0  0  0  0  0  0  0  0
   -0.8151    1.0356    1.5920 H   0  0  0  0  0  0  0  0  0  0  0  0
    0.9256    0.7726    1.8700 H   0  0  0  0  0  0  0  0  0  0  0  0
    1.2448    2.4713    0.0772 H   0  0  0  0  0  0  0  0  0  0  0  0
   -0.3950    2.1790   -0.5586 H   0  0  0  0  0  0  0  0  0  0  0  0
    0.6590    0.3812   -1.8977 H   0  0  0  0  0  0  0  0  0  0  0  0
    2.0477    0.2802   -0.7864 H   0  0  0  0  0  0  0  0  0  0  0  0
  1  2  2  0
  3  9  1  0
  5 12  1  0
  2  3  1  0
  2  8  1  0
  3  4  1  0
  3 10  1  0
  5 11  1  0
  4  8  1  0
  4  5  1  0
  5  6  1  0
  4  7  1  0
  6 14  1  0
  6  7  1  0
  6 13  1  0
  7 16  1  0
  7 15  1  0
M  END
$$$$

     RDKit          3D

 17 18  0  0  0  0  0  0  0  0999 V2000
   -1.6773   -1.9456    2.3857 C   0  0  0  0  0  0  0  0  0  0  0  0
   -1.9228   -1.1552    1.4746 C   0  0  0  0  0  0  0  0  0  0  0  0
   -1.5870   -0.4924    0.1130 C   0  0  0  0  0  0  0  0  0  0  0  0
   -1.1005    0.8473    0.3372 O   0  0  0  0  0  0  0  0  0  0  0  0
    0.3729    0.8369    0.5344 C   0  0  0  0  0  0  0  0  0  0  0  0
    1.2781    1.6095   -0.4269 C   0  0  0  0  0  0  0  0  0  0  0  0
    1.2108    0.5651   -1.6717 C   0  0  0  0  0  0  0  0  0  0  0  0
    0.7739   -0.3975   -0.4034 C   0  0  0  0  0  0  0  0  0  0  0  0
   -0.3291   -1.2209   -0.5445 C   0  0  0  0  0  0  0  0  0  0  0  0
   -1.2095   -2.7359    3.0616 H   0  0  0  0  0  0  0  0  0  0  0  0
   -2.4332   -0.4196   -0.6718 H   0  0  0  0  0  0  0  0  0  0  0  0
    0.7666    1.1121    1.7645 H   0  0  0  0  0  0  0  0  0  0  0  0
    2.3533    1.6037    0.1283 H   0  0  0  0  0  0  0  0  0  0  0  0
    1.0471    2.6719   -0.6027 H   0  0  0  0  0  0  0  0  0  0  0  0
    2.2176    0.3793   -2.1759 H   0  0  0  0  0  0  0  0  0  0  0  0
    0.3685    0.9391   -2.3468 H   0  0  0  0  0  0  0  0  0  0  0  0
   -0.1293   -2.1978   -0.9557 H   0  0  0  0  0  0  0  0  0  0  0  0
  3 11  1  0
  9 17  1  0
  3  9  1  0
  2  3  1  0
  3  4  1  0
  8  9  2  0
  1  2  3  0
  1 10  1  0
  5  8  1  0
  7  8  1  0
  4  5  1  0
  5 12  1  0
  5  6  1  0
  7 15  1  0
  7 16  1  0
  6  7  1  0
  6 14  1  0
  6 13  1  0
M  END
$$$$

     RDKit          3D

 20 21  0  0  0  0  0  0  0  0999 V2000
   -2.5470    0.6720    0.1492 C   0  0  0  0  0  0  0  0  0  0  0  0
   -1.0930    0.1781    0.1630 C   0  0  0  0  0  0  0  0  0  0  0  0
   -0.4114    0.3479   -1.1395 C   0  0  0  0  0  0  0  0  0  0  0  0
    0.9378   -0.4844   -1.1008 C   0  0  0  0  0  0  0  0  0  0  0  0
    2.2153    0.4962   -0.8785 N   0  0  0  0  0  0  0  0  0  0  0  0
    3.1927   -0.0649   -1.8702 O   0  0  0  0  0  0  0  0  0  0  0  0
    0.8846   -1.1289    0.3388 C   0  0  0  0  0  0  0  0  0  0  0  0
    1.0689   -0.4376    1.6724 C   0  0  0  0  0  0  0  0  0  0  0  0
   -0.3032   -0.8364    1.0939 C   0  0  0  0  0  0  0  0  0  0  0  0
   -2.2055    1.5920   -0.4169 H   0  0  0  0  0  0  0  0  0  0  0  0
   -3.2768    1.4873    0.5693 H   0  0  0  0  0  0  0  0  0  0  0  0
   -3.1075    0.0216   -0.4584 H   0  0  0  0  0  0  0  0  0  0  0  0
   -0.5998    1.0597    0.7417 H   0  0  0  0  0  0  0  0  0  0  0  0
   -0.1450    1.4409   -1.3035 H   0  0  0  0  0  0  0  0  0  0  0  0
   -0.9858   -0.1453   -1.9105 H   0  0  0  0  0  0  0  0  0  0  0  0
    3.5776   -0.8670   -1.4117 H   0  0  0  0  0  0  0  0  0  0  0  0
    1.4954   -2.2163    0.3252 H   0  0  0  0  0  0  0  0  0  0  0  0
    0.5523    0.1490    2.5052 H   0  0  0  0  0  0  0  0  0  0  0  0
    1.7149    0.4495    1.5101 H   0  0  0  0  0  0  0  0  0  0  0  0
   -0.9644   -1.7133    1.4211 H   0  0  0  0  0  0  0  0  0  0  0  0
  6 16  1  0
  5  6  1  0
  3 14  1  0
  3 15  1  0
  4  5  1  0
  3  4  1  0
  2  3  1  0
  1 11  1  0
  4  7  1  0
  1 10  1  0
  1  2  1  0
  1 12  1  0
  2 13  1  0
  2  9  1  0
  8 19  1  0
  7  8  1  0
  7  9  1  0
  7 17  1  0
  8  9  1  0
  8 18  1  0
  9 20  1  0
M  END
$$$$

     RDKit          3D

 25 25  0  0  0  0  0  0  0  0999 V2000
   -1.9977    1.8391   -0.1699 C   0  0  0  0  0  0  0  0  0  0  0  0
   -0.9198    1.8034    0.9290 C   0  0  0  0  0  0  0  0  0  0  0  0
   -0.4940    0.3565    1.0071 C   0  0  0  0  0  0  0  0  0  0  0  0
   -0.3836   -0.0962   -0.2599 C   0  0  0  0  0  0  0  0  0  0  0  0
    0.5579    0.7170   -1.1534 C   0  0  0  0  0  0  0  0  0  0  0  0
   -0.2921   -1.4765   -0.5188 C   0  0  0  0  0  0  0  0  0  0  0  0
    0.8793   -2.3840   -0.6223 C   0  0  0  0  0  0  0  0  0  0  0  0
    1.2720   -1.7775    1.0531 C   0  0  0  0  0  0  0  0  0  0  0  0
    0.7836   -0.0367    1.5371 C   0  0  0  0  0  0  0  0  0  0  0  0
   -2.4264    0.7693   -0.2952 H   0  0  0  0  0  0  0  0  0  0  0  0
   -1.8328    2.2895   -1.1270 H   0  0  0  0  0  0  0  0  0  0  0  0
   -2.9728    2.3082    0.1391 H   0  0  0  0  0  0  0  0  0  0  0  0
    0.1056    2.1682    0.5396 H   0  0  0  0  0  0  0  0  0  0  0  0
   -0.9443    2.4903    1.8007 H   0  0  0  0  0  0  0  0  0  0  0  0
    2.0614    1.3996   -0.9513 H   0  0  0  0  0  0  0  0  0  0  0  0
    0.2753    1.8959   -1.3069 H   0  0  0  0  0  0  0  0  0  0  0  0
    0.4198    0.3428   -2.3296 H   0  0  0  0  0  0  0  0  0  0  0  0
   -1.1969   -2.6502   -1.0054 H   0  0  0  0  0  0  0  0  0  0  0  0
    0.9451   -1.1344   -0.7797 H   0  0  0  0  0  0  0  0  0  0  0  0
    0.4441   -1.7340   -2.0504 H   0  0  0  0  0  0  0  0  0  0  0  0
    0.4338   -3.4298   -0.6477 H   0  0  0  0  0  0  0  0  0  0  0  0
    0.3952   -2.1265    1.6412 H   0  0  0  0  0  0  0  0  0  0  0  0
    2.3344   -1.7417    1.2048 H   0  0  0  0  0  0  0  0  0  0  0  0
    0.8354   -0.3624    2.6931 H   0  0  0  0  0  0  0  0  0  0  0  0
    1.7178    0.5701    0.6728 H   0  0  0  0  0  0  0  0  0  0  0  0
  5 16  1  0
  5 15  1  0
  5 17  1  0
  4  5  1  0
  6 19  1  0
  6 18  1  0
  4  6  1  0
  6  7  1  0
  3  4  2  0
  1 11  1  0
  2 13  1  0
  2  3  1  0
  3  9  1  0
  7 20  1  0
  7 21  1  0
  7  8  1  0
  1  2  1  0
  2 14  1  0
  1 10  1  0
  1 12  1  0
  8 22  1  0
  8  9  1  0
  8 23  1  0
  9 24  1  0
  9 25  1  0
M  END
$$$$

     RDKit          3D

 14 15  0  0  0  0  0  0  0  0999 V2000
    1.0236   -2.3419    0.9032 O   0  0  0  0  0  0  0  0  0  0  0  0
    0.3073   -1.4512    0.4684 C   0  0  0  0  0  0  0  0  0  0  0  0
   -1.0430   -1.3908    0.7225 O   0  0  0  0  0  0  0  0  0  0  0  0
   -1.6240   -0.3000   -0.0200 C   0  0  0  0  0  0  0  0  0  0  0  0
   -0.5213    0.6458   -0.4645 C   0  0  0  0  0  0  0  0  0  0  0  0
    0.0029    1.4750    0.6099 O   0  0  0  0  0  0  0  0  0  0  0  0
    1.3390    0.9597    0.3166 C   0  0  0  0  0  0  0  0  0  0  0  0
    0.7197   -0.2364   -0.3884 C   0  0  0  0  0  0  0  0  0  0  0  0
   -2.3795    0.1968    0.6034 H   0  0  0  0  0  0  0  0  0  0  0  0
   -2.1212   -0.7307   -0.9051 H   0  0  0  0  0  0  0  0  0  0  0  0
   -0.6742    1.2271   -1.3753 H   0  0  0  0  0  0  0  0  0  0  0  0
    1.9347    0.7760    1.2229 H   0  0  0  0  0  0  0  0  0  0  0  0
    1.8684    1.6533   -0.3461 H   0  0  0  0  0  0  0  0  0  0  0  0
    1.1678   -0.4825   -1.3476 H   0  0  0  0  0  0  0  0  0  0  0  0
  8 14  1  0
  4  9  1  0
  5 11  1  0
  2  8  1  0
  5  8  1  0
  7  8  1  0
  1  2  2  0
  2  3  1  0
  4  5  1  0
  5  6  1  0
  3  4  1  0
  4 10  1  0
  7 12  1  0
  6  7  1  0
  7 13  1  0
M  END
$$$$

     RDKit          3D

 21 23  0  0  0  0  0  0  0  0999 V2000
    2.3901    1.1918   -1.5277 O   0  0  0  0  0  0  0  0  0  0  0  0
    1.2464    0.4043   -1.1705 C   0  0  0  0  0  0  0  0  0  0  0  0
    1.6910   -0.4180    0.1002 C   0  0  0  0  0  0  0  0  0  0  0  0
    0.1673   -0.4860    0.3340 C   0  0  0  0  0  0  0  0  0  0  0  0
   -0.3784    0.1874    1.7516 C   0  0  0  0  0  0  0  0  0  0  0  0
   -1.2291    0.8038    0.5061 C   0  0  0  0  0  0  0  0  0  0  0  0
   -1.9449   -0.4700    0.1545 C   0  0  0  0  0  0  0  0  0  0  0  0
   -0.8723   -1.1942   -0.5118 C   0  0  0  0  0  0  0  0  0  0  0  0
    0.1159    1.0762   -0.2964 C   0  0  0  0  0  0  0  0  0  0  0  0
    2.2999    1.3512   -2.4776 H   0  0  0  0  0  0  0  0  0  0  0  0
    1.0509   -0.2805   -2.0158 H   0  0  0  0  0  0  0  0  0  0  0  0
    2.2730   -1.3175   -0.1112 H   0  0  0  0  0  0  0  0  0  0  0  0
    2.2329    0.1704    0.8222 H   0  0  0  0  0  0  0  0  0  0  0  0
    0.3836    0.5280    2.4487 H   0  0  0  0  0  0  0  0  0  0  0  0
   -1.2713   -0.2458    2.5102 H   0  0  0  0  0  0  0  0  0  0  0  0
   -1.8968    1.6271    0.7322 H   0  0  0  0  0  0  0  0  0  0  0  0
   -3.0097   -0.3288   -0.2602 H   0  0  0  0  0  0  0  0  0  0  0  0
   -1.9202   -1.3637    0.8566 H   0  0  0  0  0  0  0  0  0  0  0  0
   -0.8828   -0.9819   -1.5304 H   0  0  0  0  0  0  0  0  0  0  0  0
   -0.9937   -2.3110   -0.3216 H   0  0  0  0  0  0  0  0  0  0  0  0
    0.5483    2.0572    0.0069 H   0  0  0  0  0  0  0  0  0  0  0  0
  2 11  1  0
  6 16  1  0
  9 21  1  0
  1  2  1  0
  1 10  1  0
  2  9  1  0
  2  3  1  0
  6  9  1  0
  4  9  1  0
  6  7  1  0
  5  6  1  0
  7 17  1  0
  7 18  1  0
  7  8  1  0
  5 14  1  0
  3 12  1  0
  4  5  1  0
  5 15  1  0
  3  4  1  0
  3 13  1  0
  4  8  1  0
  8 20  1  0
  8 19  1  0
M  END
$$$$

     RDKit          3D

 19 19  0  0  0  0  0  0  0  0999 V2000
   -0.4455   -1.0810   -2.9732 C   0  0  0  0  0  0  0  0  0  0  0  0
    0.2609   -1.8615   -1.8692 O   0  0  0  0  0  0  0  0  0  0  0  0
    0.6177   -0.6218   -0.6076 C   0  0  0  0  0  0  0  0  0  0  0  0
    0.3375   -0.1392    1.0074 C   0  0  0  0  0  0  0  0  0  0  0  0
    1.1988    1.0641    1.5786 C   0  0  0  0  0  0  0  0  0  0  0  0
   -0.2154    1.8436    1.5143 C   0  0  0  0  0  0  0  0  0  0  0  0
   -0.9665    0.7914    0.8484 O   0  0  0  0  0  0  0  0  0  0  0  0
   -0.3688   -1.1468    2.0165 C   0  0  0  0  0  0  0  0  0  0  0  0
   -0.1462   -2.3445    2.2489 O   0  0  0  0  0  0  0  0  0  0  0  0
   -1.0248   -0.2502   -2.4810 H   0  0  0  0  0  0  0  0  0  0  0  0
   -1.1450   -1.7357   -3.4774 H   0  0  0  0  0  0  0  0  0  0  0  0
    0.2277   -0.6529   -3.7465 H   0  0  0  0  0  0  0  0  0  0  0  0
   -0.5124   -0.6308   -0.5832 H   0  0  0  0  0  0  0  0  0  0  0  0
    0.7457    0.3823   -1.0796 H   0  0  0  0  0  0  0  0  0  0  0  0
    1.6150    1.2805    0.2081 H   0  0  0  0  0  0  0  0  0  0  0  0
    1.7560    0.5830    2.3986 H   0  0  0  0  0  0  0  0  0  0  0  0
   -0.0173    2.3783    0.5901 H   0  0  0  0  0  0  0  0  0  0  0  0
   -0.5870    2.7091    2.0706 H   0  0  0  0  0  0  0  0  0  0  0  0
   -1.3303   -0.5680    2.3362 H   0  0  0  0  0  0  0  0  0  0  0  0
  6 18  1  0
  6 17  1  0
  6  7  1  0
  4  7  1  0
  5  6  1  0
  1 11  1  0
  3 14  1  0
  1 10  1  0
  1  2  1  0
  2  3  1  0
  4  5  1  0
  3  4  1  0
  4  8  1  0
  1 12  1  0
  5 16  1  0
  5 15  1  0
  3 13  1  0
  8 19  1  0
  8  9  2  0
M  END
$$$$

     RDKit          3D

 17 16  0  0  0  0  0  0  0  0999 V2000
    0.7546    2.2361    0.4823 C   0  0  0  0  0  0  0  0  0  0  0  0
   -0.0053    1.8586   -0.7042 N   0  0  0  0  0  0  0  0  0  0  0  0
    0.7933    0.9546   -1.5066 C   0  0  0  0  0  0  0  0  0  0  0  0
    1.1008   -0.2630   -0.8325 O   0  0  0  0  0  0  0  0  0  0  0  0
    0.0987   -1.2592   -0.9892 C   0  0  0  0  0  0  0  0  0  0  0  0
   -0.2750   -1.8435    0.3649 C   0  0  0  0  0  0  0  0  0  0  0  0
   -1.2043   -1.0345    1.2479 C   0  0  0  0  0  0  0  0  0  0  0  0
    0.1586   -2.9319    0.7435 O   0  0  0  0  0  0  0  0  0  0  0  0
    1.7155    2.7052    0.2228 H   0  0  0  0  0  0  0  0  0  0  0  0
    0.9278    1.3624    1.1176 H   0  0  0  0  0  0  0  0  0  0  0  0
    0.1715    2.9509    1.0725 H   0  0  0  0  0  0  0  0  0  0  0  0
    0.3851    0.7793   -2.5064 H   0  0  0  0  0  0  0  0  0  0  0  0
   -0.8066   -0.9180   -1.4973 H   0  0  0  0  0  0  0  0  0  0  0  0
    0.5101   -2.0706   -1.5968 H   0  0  0  0  0  0  0  0  0  0  0  0
   -2.0705   -1.6651    1.5209 H   0  0  0  0  0  0  0  0  0  0  0  0
   -0.6673   -0.7123    2.1380 H   0  0  0  0  0  0  0  0  0  0  0  0
   -1.5868   -0.1489    0.7224 H   0  0  0  0  0  0  0  0  0  0  0  0
  7 15  1  0
  5 13  1  0
  5 14  1  0
  7 16  1  0
  7 17  1  0
  6  7  1  0
  5  6  1  0
  4  5  1  0
  6  8  2  0
  3 12  1  0
  3  4  1  0
  2  3  1  0
  1 10  1  0
  1  2  1  0
  1  9  1  0
  1 11  1  0
M  END
$$$$
