@<TRIPOS>MOLECULE
generated_molecule
18 19 0 0 0
SMALL
NO_CHARGES

@<TRIPOS>ATOM
     1  C1         0.2039      0.8582      1.7412  C       1  LIG       0.0000
     2  O2        -1.0243      0.9175      1.1374  O       1  LIG       0.0000
     3  C3        -1.3112      0.4134     -0.0993  C       1  LIG       0.0000
     4  C4        -0.8843      0.8649     -1.4783  C       1  LIG       0.0000
     5  C5        -0.1156     -0.2607     -0.7716  C       1  LIG       0.0000
     6  C6         1.0949     -0.8142     -1.5688  C       1  LIG       0.0000
     7  O7         1.3889     -1.5457     -0.3745  O       1  LIG       0.0000
     8  C8         0.2916     -1.1660      0.3072  C       1  LIG       0.0000
     9  N9        -0.0637     -1.6075      1.4647  N       1  LIG       0.0000
    10  H10        0.2889      1.7404      2.3226  H       1  LIG       0.0000
    11  H11        1.0292      0.8279      0.9942  H       1  LIG       0.0000
    12  H12        0.2663     -0.0625      2.3027  H       1  LIG       0.0000
    13  H13       -2.3528      0.1171     -0.0478  H       1  LIG       0.0000
    14  H14       -1.8866      1.1885     -1.7924  H       1  LIG       0.0000
    15  H15       -0.0649      1.2291     -2.0585  H       1  LIG       0.0000
    16  H16        0.8567     -1.3726     -2.4897  H       1  LIG       0.0000
    17  H17        1.9699     -0.1840     -1.8167  H       1  LIG       0.0000
    18  H18        0.3132     -1.1439      2.2277  H       1  LIG       0.0000
@<TRIPOS>BOND
    1     9    18  1
    2     8     9  1
    3     7     8  1
    4     5     8  1
    5     6     7  1
    6     3    13  1
    7     5     6  1
    8     3     5  1
    9     4     5  1
   10     4    14  1
   11     6    17  1
   12     6    16  1
   13     3     4  1
   14     2     3  1
   15     4    15  1
   16     1    10  1
   17     1    11  1
   18     1     2  1
   19     1    12  1
