@<TRIPOS>MOLECULE
generated_molecule
17 18 0 0 0
SMALL
NO_CHARGES

@<TRIPOS>ATOM
     1  O1         2.1145     -1.6351     -1.2030  O       1  LIG       0.0000
     2  C2         1.5634     -1.7832      0.0137  C       1  LIG       0.0000
     3  O3         2.0409     -2.6411      0.8004  O       1  LIG       0.0000
     4  C4         0.3745     -0.9304      0.2552  C       1  LIG       0.0000
     5  N5        -0.8485     -0.3871     -0.3211  N       1  LIG       0.0000
     6  H6        -0.8251      0.3107     -0.9357  H       1  LIG       0.0000
     7  H7         2.8683     -1.2640     -1.5558  H       1  LIG       0.0000
     8  C8        -1.9550      0.3151     -0.0576  C       1  LIG       0.0000
     9  C9        -1.0038      1.2200      0.6577  C       1  LIG       0.0000
    10  N10       -0.0286      2.1484      0.2518  N       1  LIG       0.0000
    11  C11        0.3405      0.6669      0.3088  C       1  LIG       0.0000
    12  H12        0.2544     -1.8945      0.6916  H       1  LIG       0.0000
    13  H13       -2.8563     -0.1612      0.4690  H       1  LIG       0.0000
    14  H14       -2.5550      0.7157     -0.9326  H       1  LIG       0.0000
    15  H15       -1.5342      1.7000      1.4862  H       1  LIG       0.0000
    16  H16        0.6676      2.6686     -0.0377  H       1  LIG       0.0000
    17  H17        1.3822      0.9511      0.1089  H       1  LIG       0.0000
@<TRIPOS>BOND
    1     5     6  1
    2     4    12  1
    3     4     5  1
    4     5     8  1
    5     2     3  2
    6     8    13  1
    7     2     4  1
    8     4    11  1
    9     1     2  1
   10     1     7  1
   11     8    14  1
   12     8     9  1
   13    11    17  1
   14     9    11  1
   15    10    11  1
   16     9    15  1
   17     9    10  1
   18    10    16  1
