@<TRIPOS>MOLECULE
generated_molecule
19 21 0 0 0
SMALL
NO_CHARGES

@<TRIPOS>ATOM
     1  C1         1.7927      0.1238     -1.1638  C       1  LIG       0.0000
     2  C2         0.3782     -0.3207     -0.7732  C       1  LIG       0.0000
     3  C3         0.2881     -1.4149      0.3169  C       1  LIG       0.0000
     4  C4         0.0020     -0.3827      1.4404  C       1  LIG       0.0000
     5  C5        -0.9127      0.6541      0.7520  C       1  LIG       0.0000
     6  O6        -1.3761      1.6956      1.4705  O       1  LIG       0.0000
     7  C7        -1.6162     -0.1406     -0.3828  C       1  LIG       0.0000
     8  O8        -0.7884     -0.8342     -1.3404  O       1  LIG       0.0000
     9  C9        -0.5670      0.8871     -0.7307  C       1  LIG       0.0000
    10  H10        1.7807      0.8287     -2.0090  H       1  LIG       0.0000
    11  H11        2.2831      0.6060     -0.3309  H       1  LIG       0.0000
    12  H12        2.3845     -0.7449     -1.4600  H       1  LIG       0.0000
    13  H13       -0.4074     -2.1450      0.8245  H       1  LIG       0.0000
    14  H14        1.0192     -1.9657     -0.2284  H       1  LIG       0.0000
    15  H15        0.9605      0.0433      1.7758  H       1  LIG       0.0000
    16  H16       -0.5343     -0.8157      2.2815  H       1  LIG       0.0000
    17  H17       -1.3749      2.5576      1.0913  H       1  LIG       0.0000
    18  H18       -2.6389     -0.4318     -0.2359  H       1  LIG       0.0000
    19  H19       -0.6731      1.8002     -1.2977  H       1  LIG       0.0000
@<TRIPOS>BOND
    1     4    15  1
    2     3    13  1
    3     3     4  1
    4     3    14  1
    5     2     3  1
    6     4    16  1
    7     4     5  1
    8     1    11  1
    9     5     6  1
   10     6    17  1
   11     5     9  1
   12     5     7  1
   13     9    19  1
   14     2     9  1
   15     7     9  1
   16     1     2  1
   17     2     8  1
   18     1    10  1
   19     1    12  1
   20     7     8  1
   21     7    18  1
