@<TRIPOS>MOLECULE
generated_molecule
17 18 0 0 0
SMALL
NO_CHARGES

@<TRIPOS>ATOM
     1  C1        -0.2338      3.3405     -0.8501  C       1  LIG       0.0000
     2  C2         0.1261      2.0796     -0.1722  C       1  LIG       0.0000
     3  C3         0.3604      1.0727      0.3790  C       1  LIG       0.0000
     4  C4         0.5454     -0.1708      1.0566  C       1  LIG       0.0000
     5  O5        -0.7366      0.1977      0.7861  O       1  LIG       0.0000
     6  C6        -0.7821     -0.9172     -0.0736  C       1  LIG       0.0000
     7  C7        -0.4021     -2.3770     -0.4936  C       1  LIG       0.0000
     8  C8         0.4053     -1.6344      0.5745  C       1  LIG       0.0000
     9  O9         1.2130     -2.5393      1.0470  O       1  LIG       0.0000
    10  H10       -1.2002      3.1941     -1.2993  H       1  LIG       0.0000
    11  H11        0.4932      3.6084     -1.6362  H       1  LIG       0.0000
    12  H12       -0.2579      4.1291     -0.1065  H       1  LIG       0.0000
    13  H13        1.2317     -0.4517      1.8834  H       1  LIG       0.0000
    14  H14       -1.5561     -0.5380     -0.6599  H       1  LIG       0.0000
    15  H15        0.1054     -2.4846     -1.4178  H       1  LIG       0.0000
    16  H16       -1.0486     -3.1481     -0.1414  H       1  LIG       0.0000
    17  H17        1.7370     -3.3611      1.1239  H       1  LIG       0.0000
@<TRIPOS>BOND
    1     9    17  1
    2     8     9  1
    3     1    10  1
    4     4    13  1
    5     1    11  1
    6     4     8  1
    7     7     8  1
    8     6     8  1
    9     1     2  1
   10     1    12  1
   11     2     3  3
   12     3     4  1
   13     4     5  1
   14     7    15  1
   15     6     7  1
   16     7    16  1
   17     5     6  1
   18     6    14  1
