@<TRIPOS>MOLECULE
generated_molecule
17 17 0 0 0
SMALL
NO_CHARGES

@<TRIPOS>ATOM
     1  O1        -1.1475     -1.0571      1.6066  O       1  LIG       0.0000
     2  C2        -0.4094     -0.4792      0.8056  C       1  LIG       0.0000
     3  N3         0.3816      0.5223      1.3406  N       1  LIG       0.0000
     4  C4         0.1322      1.9455      1.2173  C       1  LIG       0.0000
     5  C5         1.2216      2.9600      1.0520  C       1  LIG       0.0000
     6  N6         2.0963      3.7200      0.9471  N       1  LIG       0.0000
     7  C7        -0.2603     -0.7186     -0.6721  C       1  LIG       0.0000
     8  C8         0.3376     -1.8197     -1.6335  C       1  LIG       0.0000
     9  C9        -1.1402     -1.8308     -1.3446  C       1  LIG       0.0000
    10  H10        1.2236      0.4734      1.8478  H       1  LIG       0.0000
    11  H11       -0.4856      1.9240      0.3597  H       1  LIG       0.0000
    12  H12       -0.2381      2.4121      2.1165  H       1  LIG       0.0000
    13  H13       -0.0079      0.2532     -1.0379  H       1  LIG       0.0000
    14  H14        0.5961     -2.8893     -1.5291  H       1  LIG       0.0000
    15  H15        0.9885     -1.2620     -2.2598  H       1  LIG       0.0000
    16  H16       -1.9036     -1.3478     -1.9065  H       1  LIG       0.0000
    17  H17       -1.3848     -2.8059     -0.9097  H       1  LIG       0.0000
@<TRIPOS>BOND
    1     8    15  1
    2     8    14  1
    3     8     9  1
    4     7     8  1
    5     1     2  2
    6     5     6  3
    7     9    16  1
    8     7     9  1
    9     9    17  1
   10     2     7  1
   11     2     3  1
   12     4    12  1
   13     7    13  1
   14     4     5  1
   15     3     4  1
   16     4    11  1
   17     3    10  1
