@<TRIPOS>MOLECULE
generated_molecule
18 17 0 0 0
SMALL
NO_CHARGES

@<TRIPOS>ATOM
     1  C1        -0.8026      2.3997     -0.1665  C       1  LIG       0.0000
     2  C2        -0.6014      0.7549     -0.0635  C       1  LIG       0.0000
     3  C3         0.0729     -0.6598     -0.0659  C       1  LIG       0.0000
     4  C4         0.0438     -1.4054      1.3056  C       1  LIG       0.0000
     5  C5         1.5726     -0.7878     -0.4992  C       1  LIG       0.0000
     6  C6        -0.7688     -1.3103     -1.0839  C       1  LIG       0.0000
     7  N7        -1.4176     -1.8144     -1.8757  N       1  LIG       0.0000
     8  H8        -0.3086      2.7914     -1.0672  H       1  LIG       0.0000
     9  H9        -0.3802      3.0376      0.6459  H       1  LIG       0.0000
    10  H10       -1.8341      2.6990     -0.1863  H       1  LIG       0.0000
    11  H11       -0.8740      0.7995     -1.0166  H       1  LIG       0.0000
    12  H12       -0.6492      0.7252      0.9547  H       1  LIG       0.0000
    13  H13        0.6816     -2.2873      1.2981  H       1  LIG       0.0000
    14  H14       -0.9612     -1.7565      1.5613  H       1  LIG       0.0000
    15  H15        0.3839     -0.7308      2.0874  H       1  LIG       0.0000
    16  H16        2.0612     -1.6760     -0.0812  H       1  LIG       0.0000
    17  H17        1.6618     -0.8698     -1.5802  H       1  LIG       0.0000
    18  H18        2.1200      0.0910     -0.1670  H       1  LIG       0.0000
@<TRIPOS>BOND
    1     5    16  1
    2     5    17  1
    3     5    18  1
    4     3     5  1
    5     2    11  1
    6     1     9  1
    7     6     7  3
    8     1     8  1
    9     1     2  1
   10     2     3  1
   11     2    12  1
   12     3     6  1
   13     1    10  1
   14     3     4  1
   15     4    13  1
   16     4    14  1
   17     4    15  1
