@<TRIPOS>MOLECULE
generated_molecule
16 16 0 0 0
SMALL
NO_CHARGES

@<TRIPOS>ATOM
     1  C1         0.7802      0.4371      1.9952  C       1  LIG       0.0000
     2  C2        -0.0072      0.3535      0.6290  C       1  LIG       0.0000
     3  C3         0.3427      0.2429     -0.7165  C       1  LIG       0.0000
     4  N4         0.9609      1.1265     -1.5864  N       1  LIG       0.0000
     5  C5        -0.1625     -0.8929     -1.4385  C       1  LIG       0.0000
     6  O6         0.1417     -1.3175     -2.5860  O       1  LIG       0.0000
     7  N7        -1.1618     -1.5170     -0.7288  N       1  LIG       0.0000
     8  N8        -1.8956     -0.8482      0.1927  N       1  LIG       0.0000
     9  C9        -1.3415      0.1435      0.8109  C       1  LIG       0.0000
    10  H10        1.0937      1.4675      2.1830  H       1  LIG       0.0000
    11  H11        0.1446      0.1712      2.8498  H       1  LIG       0.0000
    12  H12        1.6166     -0.2425      2.0101  H       1  LIG       0.0000
    13  H13        1.8049      1.6536     -1.6477  H       1  LIG       0.0000
    14  H14        0.9051      0.8270     -2.5658  H       1  LIG       0.0000
    15  H15       -1.2311     -2.4971     -0.6702  H       1  LIG       0.0000
    16  H16       -1.9908      0.8922      1.2690  H       1  LIG       0.0000
@<TRIPOS>BOND
    1     1    11  1
    2     4    13  1
    3     9    16  1
    4     8     9  ar
    5     7     8  ar
    6     4    14  1
    7     2     9  ar
    8     7    15  1
    9     5     7  ar
   10     1     2  1
   11     2     3  ar
   12     1    10  1
   13     1    12  1
   14     5     6  2
   15     3     5  ar
   16     3     4  1
