@<TRIPOS>MOLECULE
generated_molecule
18 19 0 0 0
SMALL
NO_CHARGES

@<TRIPOS>ATOM
     1  O1         3.5363      1.6784      0.8104  O       1  LIG       0.0000
     2  C2         2.4525      1.1399      1.0684  C       1  LIG       0.0000
     3  N3         1.5810      0.7051      0.1068  N       1  LIG       0.0000
     4  C4         0.3508     -0.1251      0.2948  C       1  LIG       0.0000
     5  C5        -0.9904      0.4010      0.8418  C       1  LIG       0.0000
     6  C6        -1.6367     -0.8821      0.3875  C       1  LIG       0.0000
     7  C7        -1.3901     -0.8834     -1.1159  C       1  LIG       0.0000
     8  C8        -0.3107     -0.3752     -1.7434  C       1  LIG       0.0000
     9  C9         0.8641      0.2371     -1.0801  C       1  LIG       0.0000
    10  H10        2.1248      1.0023      2.1313  H       1  LIG       0.0000
    11  H11        0.5022     -1.1601      0.6157  H       1  LIG       0.0000
    12  H12       -1.9864      0.9072      0.7147  H       1  LIG       0.0000
    13  H13       -0.5328      1.0282      1.6066  H       1  LIG       0.0000
    14  H14       -1.4141     -1.9612      0.4486  H       1  LIG       0.0000
    15  H15       -2.4096     -0.6463      1.1100  H       1  LIG       0.0000
    16  H16       -2.1779     -1.3594     -1.6875  H       1  LIG       0.0000
    17  H17       -0.2491     -0.3909     -2.8374  H       1  LIG       0.0000
    18  H18        1.6862      0.6845     -1.6723  H       1  LIG       0.0000
@<TRIPOS>BOND
    1     9    18  1
    2     4    11  1
    3     3     9  1
    4     3     4  1
    5     2     3  1
    6     4     9  1
    7     8     9  1
    8     4     5  1
    9     2    10  1
   10     1     2  2
   11     8    17  1
   12     7     8  2
   13     5    13  1
   14     5    12  1
   15     5     6  1
   16     6     7  1
   17     7    16  1
   18     6    15  1
   19     6    14  1
