@<TRIPOS>MOLECULE
generated_molecule
22 23 0 0 0
SMALL
NO_CHARGES

@<TRIPOS>ATOM
     1  C1         1.5014      2.0499      0.6203  C       1  LIG       0.0000
     2  C2         1.1629      0.6884     -0.0093  C       1  LIG       0.0000
     3  C3         2.5865      0.1121      0.2968  C       1  LIG       0.0000
     4  C4         0.5568     -0.1143     -1.1522  C       1  LIG       0.0000
     5  N5        -0.3836      0.4669     -0.1476  N       1  LIG       0.0000
     6  C6        -1.6952     -0.1799      0.0091  C       1  LIG       0.0000
     7  C7        -2.3752     -1.1487     -1.0967  C       1  LIG       0.0000
     8  O8        -2.9529     -1.8794     -0.0582  O       1  LIG       0.0000
     9  C9        -2.1847     -1.3648      1.0001  C       1  LIG       0.0000
    10  H10        2.4767      1.9805      1.1143  H       1  LIG       0.0000
    11  H11        0.7733      2.3739      1.3749  H       1  LIG       0.0000
    12  H12        1.5689      2.8513     -0.1292  H       1  LIG       0.0000
    13  H13        2.5654     -0.9245      0.6521  H       1  LIG       0.0000
    14  H14        3.0762      0.7201      1.0677  H       1  LIG       0.0000
    15  H15        3.2677      0.1165     -0.5762  H       1  LIG       0.0000
    16  H16        1.4806     -0.5479     -1.4202  H       1  LIG       0.0000
    17  H17       -0.3032     -0.3059     -1.8030  H       1  LIG       0.0000
    18  H18       -2.2782      0.6323      0.4306  H       1  LIG       0.0000
    19  H19       -1.8915     -1.9880     -1.6286  H       1  LIG       0.0000
    20  H20       -2.8271     -0.4732     -1.8130  H       1  LIG       0.0000
    21  H21       -1.3300     -1.9270      1.3808  H       1  LIG       0.0000
    22  H22       -2.7945     -1.1384      1.8876  H       1  LIG       0.0000
@<TRIPOS>BOND
    1     3    13  1
    2     1    11  1
    3     4    16  1
    4     3    14  1
    5     2     3  1
    6     3    15  1
    7     1    10  1
    8     1     2  1
    9     1    12  1
   10     4    17  1
   11     2     4  1
   12     4     5  1
   13     2     5  1
   14     5     6  1
   15     6    18  1
   16     6     9  1
   17     6     7  1
   18     9    21  1
   19     9    22  1
   20     8     9  1
   21     7    20  1
   22     7    19  1
   23     7     8  1
