@<TRIPOS>MOLECULE
generated_molecule
16 17 0 0 0
SMALL
NO_CHARGES

@<TRIPOS>ATOM
     1  C1        -0.6824      0.6684     -1.9529  C       1  LIG       0.0000
     2  C2        -0.3686      0.7860     -0.4204  C       1  LIG       0.0000
     3  C3         0.9342      0.0090     -0.4947  C       1  LIG       0.0000
     4  O4         1.9830      0.1000     -1.1056  O       1  LIG       0.0000
     5  C5         0.2729     -0.9808      0.4316  C       1  LIG       0.0000
     6  N6         1.3424     -1.3861      1.3275  N       1  LIG       0.0000
     7  C7         0.3276     -0.3567      1.7533  C       1  LIG       0.0000
     8  C8        -0.7928      0.2609      0.9569  C       1  LIG       0.0000
     9  O9        -1.8798      0.3086      1.4898  O       1  LIG       0.0000
    10  H10       -1.5646      1.2622     -2.1559  H       1  LIG       0.0000
    11  H11        0.1342      1.0318     -2.6001  H       1  LIG       0.0000
    12  H12       -0.8461     -0.3583     -2.2417  H       1  LIG       0.0000
    13  H13       -0.6143      1.8242     -0.1670  H       1  LIG       0.0000
    14  H14       -0.6266     -1.5072      0.1609  H       1  LIG       0.0000
    15  H15        1.6991     -1.4617      2.2339  H       1  LIG       0.0000
    16  H16        0.6819     -0.2004      2.7845  H       1  LIG       0.0000
@<TRIPOS>BOND
    1     3     4  2
    2     5    14  1
    3     3     5  1
    4     2     3  1
    5     1    11  1
    6     5     6  1
    7     5     7  1
    8     2    13  1
    9     1     2  1
   10     2     8  1
   11     1    10  1
   12     1    12  1
   13     6    15  1
   14     6     7  1
   15     7     8  1
   16     7    16  1
   17     8     9  2
