@<TRIPOS>MOLECULE
generated_molecule
21 23 0 0 0
SMALL
NO_CHARGES

@<TRIPOS>ATOM
     1  O1         1.2934      1.8178     -2.7818  O       1  LIG       0.0000
     2  C2         1.2267      1.2632     -1.4496  C       1  LIG       0.0000
     3  C3         1.3011     -0.1856     -0.9842  C       1  LIG       0.0000
     4  C4         0.2035     -0.6034      0.1151  C       1  LIG       0.0000
     5  C5        -0.3486     -0.7906      1.4622  C       1  LIG       0.0000
     6  C6        -0.5051      0.5715      0.7620  C       1  LIG       0.0000
     7  C7        -1.7814     -0.1293      1.2829  C       1  LIG       0.0000
     8  C8        -0.8612     -1.3316      0.9478  C       1  LIG       0.0000
     9  C9         0.1673      0.6044     -0.7203  C       1  LIG       0.0000
    10  H10        1.6335      1.3846     -3.5368  H       1  LIG       0.0000
    11  H11        1.7328      2.2464     -1.1512  H       1  LIG       0.0000
    12  H12        1.6148     -0.0000     -2.0315  H       1  LIG       0.0000
    13  H13        1.8027     -0.8967     -0.4426  H       1  LIG       0.0000
    14  H14       -0.1782     -1.8419      1.3815  H       1  LIG       0.0000
    15  H15       -0.6620     -0.4752      2.4837  H       1  LIG       0.0000
    16  H16       -0.3250      1.5896      1.1842  H       1  LIG       0.0000
    17  H17       -2.6589     -0.8176      1.4177  H       1  LIG       0.0000
    18  H18       -2.1392      0.8586      1.6285  H       1  LIG       0.0000
    19  H19       -1.2877     -2.0598      0.2792  H       1  LIG       0.0000
    20  H20       -0.5098     -1.7030      1.9121  H       1  LIG       0.0000
    21  H21        0.2815      0.4984     -1.7590  H       1  LIG       0.0000
@<TRIPOS>BOND
    1     2    11  1
    2     6    16  1
    3     9    21  1
    4     1     2  1
    5     1    10  1
    6     2     9  1
    7     2     3  1
    8     6     9  1
    9     4     9  1
   10     6     7  1
   11     5     6  1
   12     7    17  1
   13     7    18  1
   14     7     8  1
   15     5    14  1
   16     3    12  1
   17     4     5  1
   18     5    15  1
   19     3     4  1
   20     3    13  1
   21     4     8  1
   22     8    20  1
   23     8    19  1
