@<TRIPOS>MOLECULE
generated_molecule
23 22 0 0 0
SMALL
NO_CHARGES

@<TRIPOS>ATOM
     1  C1         1.5085      0.4044      1.1066  C       1  LIG       0.0000
     2  C2         0.2317      0.2482      0.1944  C       1  LIG       0.0000
     3  C3        -0.6068     -1.0918      0.1052  C       1  LIG       0.0000
     4  O4        -0.2317     -0.6517     -1.2269  O       1  LIG       0.0000
     5  C5        -0.5913      0.6809     -0.9351  C       1  LIG       0.0000
     6  C6        -0.0450      0.9529      0.5199  C       1  LIG       0.0000
     7  C7        -0.2396      0.9233     -2.3913  C       1  LIG       0.0000
     8  C8        -0.6593     -2.2456      0.9962  C       1  LIG       0.0000
     9  C9        -0.7835     -3.2960      1.7564  C       1  LIG       0.0000
    10  H10        2.4404      0.6580      0.5350  H       1  LIG       0.0000
    11  H11        1.4103      1.2141      1.8364  H       1  LIG       0.0000
    12  H12        1.7090     -0.5116      1.6284  H       1  LIG       0.0000
    13  H13        0.6557      0.4510     -0.7687  H       1  LIG       0.0000
    14  H14       -0.5498      0.8616      0.5321  H       1  LIG       0.0000
    15  H15       -1.5414     -1.5876      0.0953  H       1  LIG       0.0000
    16  H16       -1.5803      1.1605     -0.7376  H       1  LIG       0.0000
    17  H17       -0.9307      1.0785      1.1450  H       1  LIG       0.0000
    18  H18        0.5732      0.1458      0.9056  H       1  LIG       0.0000
    19  H19        0.6061      1.8078      0.6088  H       1  LIG       0.0000
    20  H20       -1.0271      0.5041     -3.0427  H       1  LIG       0.0000
    21  H21       -0.1543      1.9856     -2.5691  H       1  LIG       0.0000
    22  H22        0.6828      0.4237     -2.6647  H       1  LIG       0.0000
    23  H23       -0.8767     -4.1162      2.3709  H       1  LIG       0.0000
@<TRIPOS>BOND
    1     6    17  1
    2     6    18  1
    3     7    21  1
    4     6    19  1
    5     5     6  1
    6     5    16  1
    7     5     7  1
    8     4     5  1
    9     7    20  1
   10     7    22  1
   11     9    23  1
   12     8     9  3
   13     3    15  1
   14     3     8  1
   15     3     4  1
   16     2     3  1
   17     1    11  1
   18     2    14  1
   19     1     2  1
   20     2    13  1
   21     1    10  1
   22     1    12  1
