@<TRIPOS>MOLECULE
generated_molecule
17 17 0 0 0
SMALL
NO_CHARGES

@<TRIPOS>ATOM
     1  O1         1.2260      1.3056      1.7528  O       1  LIG       0.0000
     2  C2         1.7383      0.8427      0.5463  C       1  LIG       0.0000
     3  C3         0.5433      0.3144     -0.2296  C       1  LIG       0.0000
     4  C4        -0.6679     -0.3546      0.4447  C       1  LIG       0.0000
     5  O5        -1.9154     -0.6185     -0.1177  O       1  LIG       0.0000
     6  C6        -2.9887     -1.4567     -0.1064  C       1  LIG       0.0000
     7  O7        -2.9504     -2.6521      0.0579  O       1  LIG       0.0000
     8  C8         1.1551      0.4218     -1.6631  C       1  LIG       0.0000
     9  O9        -0.1897      0.5417     -1.3850  O       1  LIG       0.0000
    10  H10        1.4409      0.9411      2.6049  H       1  LIG       0.0000
    11  H11        2.2711      1.6697      0.0689  H       1  LIG       0.0000
    12  H12        2.4969      0.0508      0.6887  H       1  LIG       0.0000
    13  H13       -0.2650     -1.2833      0.6698  H       1  LIG       0.0000
    14  H14       -1.0701      0.3308      1.1278  H       1  LIG       0.0000
    15  H15       -3.8597     -0.8696     -0.2780  H       1  LIG       0.0000
    16  H16        0.8866      0.3114     -2.7705  H       1  LIG       0.0000
    17  H17        2.1487      0.5049     -1.4114  H       1  LIG       0.0000
@<TRIPOS>BOND
    1     4    13  1
    2     4     5  1
    3     5     6  1
    4     4    14  1
    5     3     4  1
    6     2    11  1
    7     6     7  2
    8     6    15  1
    9     1    10  1
   10     2     3  1
   11     3     8  1
   12     3     9  1
   13     1     2  1
   14     2    12  1
   15     8    16  1
   16     8    17  1
   17     8     9  1
