@<TRIPOS>MOLECULE
generated_molecule
19 18 0 0 0
SMALL
NO_CHARGES

@<TRIPOS>ATOM
     1  C1        -0.6521      3.1842      0.8969  C       1  LIG       0.0000
     2  C2        -0.7773      1.6926      0.8149  C       1  LIG       0.0000
     3  C3        -0.8329      0.4915      0.6941  C       1  LIG       0.0000
     4  C4        -0.8727     -0.9525      0.5310  C       1  LIG       0.0000
     5  C5         0.0985     -1.4375     -0.6313  C       1  LIG       0.0000
     6  C6         1.6564     -1.6327     -0.3584  C       1  LIG       0.0000
     7  O7         2.2473     -2.4778      0.4834  O       1  LIG       0.0000
     8  C8        -0.6409     -0.4761     -1.4269  C       1  LIG       0.0000
     9  C9        -1.2720      0.3007     -2.0691  C       1  LIG       0.0000
    10  H10        0.2501      3.4609      1.4474  H       1  LIG       0.0000
    11  H11       -1.5175      3.6498      1.4047  H       1  LIG       0.0000
    12  H12       -0.5739      3.5581     -0.1111  H       1  LIG       0.0000
    13  H13       -1.3986     -1.7676      0.1347  H       1  LIG       0.0000
    14  H14       -1.0067     -0.9523      1.6530  H       1  LIG       0.0000
    15  H15        0.1078     -2.4588     -0.9653  H       1  LIG       0.0000
    16  H16        2.1948     -0.9657      0.2653  H       1  LIG       0.0000
    17  H17        1.9090     -1.8148     -1.3643  H       1  LIG       0.0000
    18  H18        2.9601     -2.4141      1.2247  H       1  LIG       0.0000
    19  H19       -1.8794      1.0121     -2.6237  H       1  LIG       0.0000
@<TRIPOS>BOND
    1     6    17  1
    2     6    16  1
    3     6     7  1
    4     5     6  1
    5     7    18  1
    6     4    13  1
    7     1    11  1
    8     3     4  1
    9     4     5  1
   10     4    14  1
   11     2     3  3
   12     5     8  1
   13     5    15  1
   14     1     2  1
   15     1    12  1
   16     1    10  1
   17     8     9  3
   18     9    19  1
