@<TRIPOS>MOLECULE
generated_molecule
13 13 0 0 0
SMALL
NO_CHARGES

@<TRIPOS>ATOM
     1  O1         1.6857      1.8057     -2.2357  O       1  LIG       0.0000
     2  C2         0.7707      1.2450     -1.7015  C       1  LIG       0.0000
     3  O3        -0.3781      0.8350     -2.3233  O       1  LIG       0.0000
     4  C4        -1.1428      0.2206     -1.3975  C       1  LIG       0.0000
     5  C5        -0.4685      0.2333     -0.2168  C       1  LIG       0.0000
     6  C6        -0.7698     -0.3297      1.1233  C       1  LIG       0.0000
     7  C7         0.4730     -0.9254      1.6017  C       1  LIG       0.0000
     8  C8         1.4932     -1.4061      1.9875  C       1  LIG       0.0000
     9  O9         0.6928      0.8980     -0.3872  O       1  LIG       0.0000
    10  H10       -2.1014     -0.1680     -1.6475  H       1  LIG       0.0000
    11  H11       -1.5982     -0.9835      0.9804  H       1  LIG       0.0000
    12  H12       -1.0575      0.4058      1.8982  H       1  LIG       0.0000
    13  H13        2.4007     -1.8307      2.3184  H       1  LIG       0.0000
@<TRIPOS>BOND
    1     1     2  2
    2     6    12  1
    3     2     9  ar
    4     5     9  ar
    5     2     3  ar
    6     5     6  1
    7     4     5  ar
    8     6    11  1
    9     6     7  1
   10     3     4  ar
   11     4    10  1
   12     7     8  3
   13     8    13  1
