@<TRIPOS>MOLECULE
generated_molecule
14 16 0 0 0
SMALL
NO_CHARGES

@<TRIPOS>ATOM
     1  N1         0.2109      3.1760     -0.2563  N       1  LIG       0.0000
     2  C2        -0.0661      2.0469     -0.1711  C       1  LIG       0.0000
     3  C3        -0.3890      0.6865     -0.0274  C       1  LIG       0.0000
     4  C4        -1.4485     -0.3890     -0.3565  C       1  LIG       0.0000
     5  O5        -1.1725     -1.0731      0.8469  O       1  LIG       0.0000
     6  C6        -0.0307     -0.3211      1.1015  C       1  LIG       0.0000
     7  C7         1.3284     -0.8024      0.4800  C       1  LIG       0.0000
     8  O8         1.0684     -0.4733     -0.8377  O       1  LIG       0.0000
     9  C9        -0.2242     -0.1189     -1.3126  C       1  LIG       0.0000
    10  H10       -2.4642     -0.5266     -0.7291  H       1  LIG       0.0000
    11  H11        0.0138     -0.1028      2.1512  H       1  LIG       0.0000
    12  H12        1.4355     -1.1016      1.5162  H       1  LIG       0.0000
    13  H13        2.2474     -1.0484     -0.0652  H       1  LIG       0.0000
    14  H14       -0.5091      0.0479     -2.3398  H       1  LIG       0.0000
@<TRIPOS>BOND
    1     7    13  1
    2     7     8  1
    3     8     9  1
    4     7    12  1
    5     6     7  1
    6     9    14  1
    7     3     9  1
    8     4     9  1
    9     3     6  1
   10     6    11  1
   11     5     6  1
   12     2     3  1
   13     3     4  1
   14     1     2  3
   15     4     5  1
   16     4    10  1
