@<TRIPOS>MOLECULE
generated_molecule
16 17 0 0 0
SMALL
NO_CHARGES

@<TRIPOS>ATOM
     1  N1         0.0884      2.1245     -0.6203  N       1  LIG       0.0000
     2  C2        -0.0822      0.7253     -0.6241  C       1  LIG       0.0000
     3  C3        -1.0546      0.4008     -1.6625  C       1  LIG       0.0000
     4  N4        -1.8528      0.2173     -2.5240  N       1  LIG       0.0000
     5  C5         0.7821     -0.5404     -0.5965  C       1  LIG       0.0000
     6  N6         0.0287     -1.6849     -0.1147  N       1  LIG       0.0000
     7  C7        -0.7053     -1.0929      0.9925  C       1  LIG       0.0000
     8  C8         0.2906      0.0367      0.6849  C       1  LIG       0.0000
     9  O9         1.0300      0.3990      1.7463  O       1  LIG       0.0000
    10  H10       -0.4471      2.6907     -0.0133  H       1  LIG       0.0000
    11  H11        0.9795      2.5768     -0.7539  H       1  LIG       0.0000
    12  H12        1.6776     -0.5107     -1.1926  H       1  LIG       0.0000
    13  H13        0.2445     -2.5571     -0.5281  H       1  LIG       0.0000
    14  H14       -1.7716     -0.9131      0.8238  H       1  LIG       0.0000
    15  H15       -0.6018     -1.6081      1.9725  H       1  LIG       0.0000
    16  H16        1.3940     -0.2640      2.4098  H       1  LIG       0.0000
@<TRIPOS>BOND
    1     9    16  1
    2     3     4  3
    3     8     9  1
    4     2     3  1
    5     1     2  1
    6     1    11  1
    7     1    10  1
    8     2     8  1
    9     2     5  1
   10     7     8  1
   11     5     8  1
   12     7    15  1
   13     7    14  1
   14     6     7  1
   15     5    12  1
   16     5     6  1
   17     6    13  1
