@<TRIPOS>MOLECULE
generated_molecule
16 16 0 0 0
SMALL
NO_CHARGES

@<TRIPOS>ATOM
     1  C1        -0.2040     -0.7073     -2.6153  C       1  LIG       0.0000
     2  C2         0.0725     -0.3120     -1.1930  C       1  LIG       0.0000
     3  N3        -0.7060     -0.7057     -0.2146  N       1  LIG       0.0000
     4  C4        -0.2889     -0.0624      0.8670  C       1  LIG       0.0000
     5  C5        -1.0028     -0.1596      2.1962  C       1  LIG       0.0000
     6  C6         0.8082      0.7127      0.5736  C       1  LIG       0.0000
     7  O7         1.4977      1.5463      1.3928  O       1  LIG       0.0000
     8  N8         1.0578      0.5025     -0.7466  N       1  LIG       0.0000
     9  H9        -1.1908     -0.3572     -2.8834  H       1  LIG       0.0000
    10  H10        0.5175     -0.2908     -3.2918  H       1  LIG       0.0000
    11  H11       -0.2005     -1.8054     -2.7274  H       1  LIG       0.0000
    12  H12       -2.0742     -0.0753      2.0368  H       1  LIG       0.0000
    13  H13       -0.7916     -1.1236      2.6598  H       1  LIG       0.0000
    14  H14       -0.6954      0.6252      2.8642  H       1  LIG       0.0000
    15  H15        1.3463      1.3352      2.3092  H       1  LIG       0.0000
    16  H16        1.8540      0.8774     -1.2275  H       1  LIG       0.0000
@<TRIPOS>BOND
    1     5    14  1
    2     5    13  1
    3     5    12  1
    4     4     5  1
    5     3     4  ar
    6     2     3  ar
    7     1    10  1
    8     4     6  ar
    9     1     2  1
   10     2     8  ar
   11     1     9  1
   12     1    11  1
   13     6     8  ar
   14     6     7  1
   15     8    16  1
   16     7    15  1
