@<TRIPOS>MOLECULE
generated_molecule
18 17 0 0 0
SMALL
NO_CHARGES

@<TRIPOS>ATOM
     1  C1         1.7217     -1.6860      1.6122  C       1  LIG       0.0000
     2  C2         0.6421     -0.5805      1.2814  C       1  LIG       0.0000
     3  O3         0.2346     -0.3737     -0.0530  O       1  LIG       0.0000
     4  C4        -0.3185      0.6594     -0.6675  C       1  LIG       0.0000
     5  O5        -1.0315      1.3979     -0.0119  O       1  LIG       0.0000
     6  C6        -0.0937      0.8573     -2.1920  C       1  LIG       0.0000
     7  N7        -1.0759      1.7860     -2.7138  N       1  LIG       0.0000
     8  C8        -0.7391     -0.6247      1.7325  C       1  LIG       0.0000
     9  C9        -1.8792     -0.6259      2.0533  C       1  LIG       0.0000
    10  H10        1.5168     -2.2234      2.5432  H       1  LIG       0.0000
    11  H11        1.7654     -2.3792      0.7962  H       1  LIG       0.0000
    12  H12        2.7523     -1.2823      1.7424  H       1  LIG       0.0000
    13  H13        1.2655      0.2054      1.7227  H       1  LIG       0.0000
    14  H14       -0.1861     -0.0428     -2.8171  H       1  LIG       0.0000
    15  H15        0.9514      1.1479     -2.2706  H       1  LIG       0.0000
    16  H16       -0.6555      2.6670     -2.8462  H       1  LIG       0.0000
    17  H17       -1.9371      1.7187     -2.2329  H       1  LIG       0.0000
    18  H18       -2.9331     -0.6209      2.3209  H       1  LIG       0.0000
@<TRIPOS>BOND
    1     9    18  1
    2     8     9  3
    3     2     8  1
    4     1    11  1
    5     1    10  1
    6     1     2  1
    7     1    12  1
    8     2     3  1
    9     2    13  1
   10     3     4  1
   11     6    14  1
   12     6    15  1
   13     4     6  1
   14     6     7  1
   15     4     5  2
   16     7    17  1
   17     7    16  1
