@<TRIPOS>MOLECULE
generated_molecule
16 16 0 0 0
SMALL
NO_CHARGES

@<TRIPOS>ATOM
     1  N1         1.0538      1.9870      0.5878  N       1  LIG       0.0000
     2  C2         0.4306      1.0417     -0.1168  C       1  LIG       0.0000
     3  O3         0.9871      0.1126     -0.8792  O       1  LIG       0.0000
     4  C4         0.8527     -1.2959     -0.7275  C       1  LIG       0.0000
     5  C5         0.4056     -0.9488      0.6778  C       1  LIG       0.0000
     6  O6         1.1673     -1.1397      1.6094  O       1  LIG       0.0000
     7  C7        -1.0100     -0.4344      0.6961  C       1  LIG       0.0000
     8  C8        -1.3050      0.5825     -0.4331  C       1  LIG       0.0000
     9  O9        -2.1307     -0.5410     -0.1916  O       1  LIG       0.0000
    10  H10        1.9710      1.8067      0.8199  H       1  LIG       0.0000
    11  H11       -0.6139      1.0421     -0.0901  H       1  LIG       0.0000
    12  H12        0.1228     -1.9343     -1.2481  H       1  LIG       0.0000
    13  H13        1.7655     -1.8748     -0.9042  H       1  LIG       0.0000
    14  H14       -1.3624     -0.4723      1.6939  H       1  LIG       0.0000
    15  H15       -1.0923      0.5546     -1.5147  H       1  LIG       0.0000
    16  H16       -1.2421      1.5140      0.0204  H       1  LIG       0.0000
@<TRIPOS>BOND
    1     4    13  1
    2     4    12  1
    3     4     5  1
    4     3     4  1
    5     5     6  2
    6     5     7  1
    7     2     3  1
    8     2    11  1
    9     1     2  1
   10     7    14  1
   11     7     9  1
   12     7     8  1
   13     8     9  1
   14     1    10  1
   15     8    16  1
   16     8    15  1
