@<TRIPOS>MOLECULE
generated_molecule
13 13 0 0 0
SMALL
NO_CHARGES

@<TRIPOS>ATOM
     1  O1         2.0103      0.0095      2.1377  O       1  LIG       0.0000
     2  C2         0.9870      0.6018      1.7327  C       1  LIG       0.0000
     3  C3         0.1047      0.2690      0.5232  C       1  LIG       0.0000
     4  C4        -0.7263     -0.4230     -0.6546  C       1  LIG       0.0000
     5  O5        -1.4528     -0.9675      0.4301  O       1  LIG       0.0000
     6  C6        -0.6194     -0.7030      1.4348  C       1  LIG       0.0000
     7  O7        -0.5057     -1.0917      2.5775  O       1  LIG       0.0000
     8  C8        -0.1524     -0.0411     -1.9639  C       1  LIG       0.0000
     9  C9         0.2395      0.2331     -3.1050  C       1  LIG       0.0000
    10  H10        0.6947      1.5147      2.3382  H       1  LIG       0.0000
    11  H11        0.2838      1.0925     -0.1602  H       1  LIG       0.0000
    12  H12       -1.4297     -0.9780     -1.2273  H       1  LIG       0.0000
    13  H13        0.5664      0.4837     -4.0632  H       1  LIG       0.0000
@<TRIPOS>BOND
    1     9    13  1
    2     8     9  3
    3     4    12  1
    4     4     8  1
    5     4     5  1
    6     3     4  1
    7     1     2  2
    8     5     6  1
    9     2     3  1
   10     2    10  1
   11     3    11  1
   12     3     6  1
   13     6     7  2
