@<TRIPOS>MOLECULE
generated_molecule
27 26 0 0 0
SMALL
NO_CHARGES

@<TRIPOS>ATOM
     1  C1        -2.2883      0.6908      0.3303  C       1  LIG       0.0000
     2  C2        -1.0487      1.6121      0.7030  C       1  LIG       0.0000
     3  C3         0.4847      1.4265      0.2895  C       1  LIG       0.0000
     4  O4         1.6858      0.9079      0.7710  O       1  LIG       0.0000
     5  C5         1.8888     -0.3459      1.3471  C       1  LIG       0.0000
     6  C6         1.1544     -1.4706      0.5394  C       1  LIG       0.0000
     7  C7         0.0754     -0.8713     -0.4082  C       1  LIG       0.0000
     8  C8         0.8096      0.3717     -0.9364  C       1  LIG       0.0000
     9  C9        -0.6385     -1.6350     -1.5981  C       1  LIG       0.0000
    10  H10       -2.3162      0.4950     -0.7434  H       1  LIG       0.0000
    11  H11       -2.2297     -0.3264      0.7960  H       1  LIG       0.0000
    12  H12       -3.2048      1.1422      0.6466  H       1  LIG       0.0000
    13  H13       -0.9291      2.5516      0.3337  H       1  LIG       0.0000
    14  H14       -1.4701      1.4278      1.7193  H       1  LIG       0.0000
    15  H15        0.2275      2.4089      0.1876  H       1  LIG       0.0000
    16  H16        1.0071      0.7356     -0.2519  H       1  LIG       0.0000
    17  H17        1.6300     -0.8114      2.2709  H       1  LIG       0.0000
    18  H18        2.8756      0.1167      1.3928  H       1  LIG       0.0000
    19  H19        0.8228     -2.0749      1.3771  H       1  LIG       0.0000
    20  H20        1.7720     -2.0748     -0.1180  H       1  LIG       0.0000
    21  H21       -0.8017     -0.7965      0.1919  H       1  LIG       0.0000
    22  H22        0.5992      1.1904     -0.2557  H       1  LIG       0.0000
    23  H23        1.8852      0.2137     -0.9654  H       1  LIG       0.0000
    24  H24        0.4863      0.6399     -1.9438  H       1  LIG       0.0000
    25  H25       -0.2916     -2.6687     -1.7513  H       1  LIG       0.0000
    26  H26       -0.4911     -1.2156     -2.5852  H       1  LIG       0.0000
    27  H27       -1.6946     -1.6397     -1.3387  H       1  LIG       0.0000
@<TRIPOS>BOND
    1     8    23  1
    2     7    21  1
    3     9    26  1
    4     8    24  1
    5     7     8  1
    6     8    22  1
    7     7     9  1
    8     6     7  1
    9     9    25  1
   10     9    27  1
   11     5    17  1
   12     5    18  1
   13     5     6  1
   14     4     5  1
   15     6    20  1
   16     6    19  1
   17     3    15  1
   18     3     4  1
   19     3    16  1
   20     2     3  1
   21     1    11  1
   22     2    14  1
   23     1     2  1
   24     2    13  1
   25     1    10  1
   26     1    12  1
