@<TRIPOS>MOLECULE
generated_molecule
17 19 0 0 0
SMALL
NO_CHARGES

@<TRIPOS>ATOM
     1  C1         0.0464     -0.9988     -1.9967  C       1  LIG       0.0000
     2  N2        -0.4420     -1.1923     -0.5733  N       1  LIG       0.0000
     3  C3        -0.4098     -1.0946      0.8989  C       1  LIG       0.0000
     4  C4        -0.4858      0.2200      1.7420  C       1  LIG       0.0000
     5  C5        -1.2473      0.0256      0.4346  C       1  LIG       0.0000
     6  C6         0.2032      0.0775     -0.1427  C       1  LIG       0.0000
     7  C7         0.6541      0.9685      1.0400  C       1  LIG       0.0000
     8  C8         0.9793      2.2057      0.3255  C       1  LIG       0.0000
     9  N9         1.2669      3.1899     -0.1962  N       1  LIG       0.0000
    10  H10        1.0622     -0.5822     -2.0202  H       1  LIG       0.0000
    11  H11       -0.4509     -0.2751     -2.7634  H       1  LIG       0.0000
    12  H12       -0.0977     -1.9457     -2.3618  H       1  LIG       0.0000
    13  H13       -0.1194     -1.8787      1.5757  H       1  LIG       0.0000
    14  H14       -0.9503      0.3366      2.7320  H       1  LIG       0.0000
    15  H15       -2.3050      0.0734      0.2999  H       1  LIG       0.0000
    16  H16        0.9811      0.0390     -0.9029  H       1  LIG       0.0000
    17  H17        1.3150      0.8313      1.9087  H       1  LIG       0.0000
@<TRIPOS>BOND
    1     3    13  1
    2     4    14  1
    3     3     4  1
    4     3     5  1
    5     2     3  1
    6     4     5  1
    7     4     7  1
    8     1    11  1
    9     5    15  1
   10     5     6  1
   11     1    10  1
   12     1     2  1
   13     2     6  1
   14     1    12  1
   15     7    17  1
   16     6     7  1
   17     7     8  1
   18     6    16  1
   19     8     9  3
