@<TRIPOS>MOLECULE
generated_molecule
15 17 0 0 0
SMALL
NO_CHARGES

@<TRIPOS>ATOM
     1  O1         0.7203      0.1915     -3.1918  O       1  LIG       0.0000
     2  C2         0.4481      0.0347     -2.0146  C       1  LIG       0.0000
     3  O3        -0.7751     -0.1840     -1.5291  O       1  LIG       0.0000
     4  C4        -1.0588     -0.2876     -0.1624  C       1  LIG       0.0000
     5  C5        -1.0991     -0.1763      1.3696  C       1  LIG       0.0000
     6  C6         0.4705     -0.0530      1.3373  C       1  LIG       0.0000
     7  O7         1.6206     -0.3797      0.5843  O       1  LIG       0.0000
     8  C8         1.3670     -0.0030     -0.7641  C       1  LIG       0.0000
     9  C9         0.1735      0.6021     -0.0012  C       1  LIG       0.0000
    10  H10       -1.9417     -0.9008     -0.2173  H       1  LIG       0.0000
    11  H11       -0.9947      0.0678      2.4356  H       1  LIG       0.0000
    12  H12       -2.1381     -0.4379      1.1762  H       1  LIG       0.0000
    13  H13        0.8183     -0.0559      2.3661  H       1  LIG       0.0000
    14  H14        2.3405     -0.0936     -1.2584  H       1  LIG       0.0000
    15  H15        0.0487      1.6757     -0.1302  H       1  LIG       0.0000
@<TRIPOS>BOND
    1     9    15  1
    2     8    14  1
    3     1     2  2
    4     2     8  1
    5     2     3  1
    6     8     9  1
    7     7     8  1
    8     4     9  1
    9     6     9  1
   10     4    10  1
   11     3     4  1
   12     4     5  1
   13     6     7  1
   14     5     6  1
   15     6    13  1
   16     5    11  1
   17     5    12  1
