@<TRIPOS>MOLECULE
generated_molecule
20 20 0 0 0
SMALL
NO_CHARGES

@<TRIPOS>ATOM
     1  C1         2.0622     -0.3265      1.0346  C       1  LIG       0.0000
     2  C2         0.9372     -0.4885     -0.0866  C       1  LIG       0.0000
     3  C3         1.0013      1.0870     -0.1565  C       1  LIG       0.0000
     4  O4         0.5351      1.9732      0.7627  O       1  LIG       0.0000
     5  C5        -0.4226     -1.1464     -0.4876  C       1  LIG       0.0000
     6  C6        -1.7565     -1.0515      0.3240  C       1  LIG       0.0000
     7  C7        -1.5940     -0.3241     -1.0265  C       1  LIG       0.0000
     8  O8        -2.7354      0.4484     -1.0017  O       1  LIG       0.0000
     9  H9         2.1657      0.6921      1.3719  H       1  LIG       0.0000
    10  H10        3.0236     -0.6596      0.6577  H       1  LIG       0.0000
    11  H11        1.8132     -0.9511      1.9129  H       1  LIG       0.0000
    12  H12        1.1451     -1.3239     -0.6132  H       1  LIG       0.0000
    13  H13        0.2926      1.4903     -0.8506  H       1  LIG       0.0000
    14  H14        2.0333      1.1443     -0.2252  H       1  LIG       0.0000
    15  H15       -0.0433      2.7851      0.7605  H       1  LIG       0.0000
    16  H16       -0.3897     -2.1476     -0.9587  H       1  LIG       0.0000
    17  H17       -2.2741     -1.9893      0.4005  H       1  LIG       0.0000
    18  H18       -1.8094     -0.4066      1.1915  H       1  LIG       0.0000
    19  H19       -1.1209     -0.1930     -1.9596  H       1  LIG       0.0000
    20  H20       -2.8634      1.3878     -1.0502  H       1  LIG       0.0000
@<TRIPOS>BOND
    1     4    15  1
    2     3     4  1
    3     3    14  1
    4     3    13  1
    5     2     3  1
    6     1    10  1
    7     2    12  1
    8     1     2  1
    9     2     5  1
   10     1     9  1
   11     1    11  1
   12     8    20  1
   13     7     8  1
   14     5    16  1
   15     5     7  1
   16     5     6  1
   17     7    19  1
   18     6     7  1
   19     6    18  1
   20     6    17  1
