@<TRIPOS>MOLECULE
generated_molecule
18 19 0 0 0
SMALL
NO_CHARGES

@<TRIPOS>ATOM
     1  O1         0.5080      0.1326      3.1617  O       1  LIG       0.0000
     2  N2         0.3610      0.9412      2.2259  N       1  LIG       0.0000
     3  C3         0.5727      0.9153      0.9647  C       1  LIG       0.0000
     4  C4         0.5859      1.3501     -0.4570  C       1  LIG       0.0000
     5  C5         0.1145     -0.0837     -0.7037  C       1  LIG       0.0000
     6  C6        -0.2216     -1.2136     -1.6956  C       1  LIG       0.0000
     7  C7        -1.2977     -0.2320     -1.3523  C       1  LIG       0.0000
     8  O8        -2.2673      0.1623     -0.4876  O       1  LIG       0.0000
     9  C9         1.1040     -0.3726      0.4555  C       1  LIG       0.0000
    10  H10        0.2680     -0.4849      3.8154  H       1  LIG       0.0000
    11  H11        0.3428      1.5442     -1.4859  H       1  LIG       0.0000
    12  H12        1.1387      2.1881     -0.0150  H       1  LIG       0.0000
    13  H13       -0.1450     -1.1892     -2.7861  H       1  LIG       0.0000
    14  H14        0.0342     -2.1314     -1.2202  H       1  LIG       0.0000
    15  H15       -1.8109     -0.1614     -2.2972  H       1  LIG       0.0000
    16  H16       -2.3688      0.1531      0.4309  H       1  LIG       0.0000
    17  H17        0.9119     -1.3768      0.8589  H       1  LIG       0.0000
    18  H18        2.1695     -0.1415      0.5877  H       1  LIG       0.0000
@<TRIPOS>BOND
    1     8    16  1
    2     7     8  1
    3     7    15  1
    4     5     7  1
    5     6     7  1
    6     4    12  1
    7     9    17  1
    8     5     6  1
    9     4     5  1
   10     5     9  1
   11     6    14  1
   12     6    13  1
   13     3     4  1
   14     4    11  1
   15     3     9  1
   16     9    18  1
   17     2     3  1
   18     1     2  1
   19     1    10  1
