@<TRIPOS>MOLECULE
generated_molecule
18 19 0 0 0
SMALL
NO_CHARGES

@<TRIPOS>ATOM
     1  N1         1.8750      0.9710     -2.0918  N       1  LIG       0.0000
     2  C2         2.0038      0.5982     -0.8189  C       1  LIG       0.0000
     3  O3         1.3899      1.2334      0.1467  O       1  LIG       0.0000
     4  C4         0.1213      1.0122      0.6948  C       1  LIG       0.0000
     5  C5         0.2344     -0.4169      0.1835  C       1  LIG       0.0000
     6  C6        -1.1089     -0.0253     -0.5583  C       1  LIG       0.0000
     7  C7        -1.3563      0.4643      0.8539  C       1  LIG       0.0000
     8  C8        -1.6579     -1.0131      1.0461  C       1  LIG       0.0000
     9  C9        -0.4235     -1.5392      0.9210  C       1  LIG       0.0000
    10  H10        2.4004      0.5268     -2.8027  H       1  LIG       0.0000
    11  H11        2.5862     -0.2229     -0.4730  H       1  LIG       0.0000
    12  H12       -0.0118      1.9143      1.2517  H       1  LIG       0.0000
    13  H13        1.2847     -0.6368     -0.0197  H       1  LIG       0.0000
    14  H14       -0.7193      0.4900     -1.4312  H       1  LIG       0.0000
    15  H15       -2.0509     -0.5305     -0.6894  H       1  LIG       0.0000
    16  H16       -2.0051      1.2077      1.3510  H       1  LIG       0.0000
    17  H17       -2.5936     -1.5339      1.1930  H       1  LIG       0.0000
    18  H18        0.0315     -2.4994      1.2434  H       1  LIG       0.0000
@<TRIPOS>BOND
    1     7    16  1
    2     8    17  1
    3     7     8  1
    4     4     7  1
    5     6     7  1
    6     8     9  2
    7     4    12  1
    8     3     4  1
    9     2     3  1
   10     4     5  1
   11     1     2  1
   12     2    11  1
   13     1    10  1
   14     6    15  1
   15     6    14  1
   16     5     6  1
   17     5     9  1
   18     9    18  1
   19     5    13  1
