@<TRIPOS>MOLECULE
generated_molecule
16 16 0 0 0
SMALL
NO_CHARGES

@<TRIPOS>ATOM
     1  C1         1.5496      0.4954     -1.1503  C       1  LIG       0.0000
     2  N2         0.4242     -0.0492     -0.3057  N       1  LIG       0.0000
     3  C3        -0.3952      0.7240      0.4651  C       1  LIG       0.0000
     4  N4        -0.5423      2.1063      0.5361  N       1  LIG       0.0000
     5  C5        -1.2171     -0.0821      1.2358  C       1  LIG       0.0000
     6  C6        -0.9507     -1.3838      0.8792  C       1  LIG       0.0000
     7  C7         0.0403     -1.3205     -0.1044  C       1  LIG       0.0000
     8  O8         0.4434     -2.4086     -0.7489  O       1  LIG       0.0000
     9  H9         1.2029      0.6421     -2.1722  H       1  LIG       0.0000
    10  H10        1.8683      1.4470     -0.7517  H       1  LIG       0.0000
    11  H11        2.4052     -0.1788     -1.1506  H       1  LIG       0.0000
    12  H12        0.3168      2.5935      0.4647  H       1  LIG       0.0000
    13  H13       -1.5213      2.3080      0.6516  H       1  LIG       0.0000
    14  H14       -1.9198      0.2934      1.9692  H       1  LIG       0.0000
    15  H15       -1.4154     -2.2743      1.3174  H       1  LIG       0.0000
    16  H16       -0.2889     -2.9124     -1.1354  H       1  LIG       0.0000
@<TRIPOS>BOND
    1     4    13  1
    2     4    12  1
    3     3     4  1
    4     5    14  1
    5     3     5  ar
    6     2     3  ar
    7     1    10  1
    8     5     6  ar
    9     1     2  1
   10     2     7  ar
   11     1     9  1
   12     1    11  1
   13     6     7  ar
   14     6    15  1
   15     7     8  1
   16     8    16  1
