@<TRIPOS>MOLECULE
generated_molecule
19 19 0 0 0
SMALL
NO_CHARGES

@<TRIPOS>ATOM
     1  C1        -0.4189      1.7433     -0.8992  C       1  LIG       0.0000
     2  C2         0.4769      1.0137     -0.8072  C       1  LIG       0.0000
     3  C3         1.5543      0.0343     -0.6569  C       1  LIG       0.0000
     4  C4         0.6589     -0.8774      0.0837  C       1  LIG       0.0000
     5  C5         0.8506     -0.5394      1.3457  C       1  LIG       0.0000
     6  C6         0.1404      0.7914      1.3552  C       1  LIG       0.0000
     7  O7        -1.0388      0.4315      0.7279  O       1  LIG       0.0000
     8  C8        -1.5514     -0.4074     -0.2423  C       1  LIG       0.0000
     9  C9        -0.5267     -1.4782     -0.6290  C       1  LIG       0.0000
    10  H10       -1.2571      2.3906     -0.9878  H       1  LIG       0.0000
    11  H11        2.4172      0.6638     -0.2268  H       1  LIG       0.0000
    12  H12        2.0363     -0.6682     -1.2731  H       1  LIG       0.0000
    13  H13        1.3905     -1.0674      2.1207  H       1  LIG       0.0000
    14  H14        0.1643      1.6767      0.6902  H       1  LIG       0.0000
    15  H15        0.5647      1.0005      2.3041  H       1  LIG       0.0000
    16  H16       -2.4834     -0.3854      0.3517  H       1  LIG       0.0000
    17  H17       -1.8391     -0.2806     -1.2784  H       1  LIG       0.0000
    18  H18       -1.3674     -1.7958     -1.2219  H       1  LIG       0.0000
    19  H19        0.2286     -2.2460     -0.7564  H       1  LIG       0.0000
@<TRIPOS>BOND
    1     5    13  1
    2     6    14  1
    3     6    15  1
    4     5     6  1
    5     4     5  2
    6     3    11  1
    7     6     7  1
    8     3     4  1
    9     2     3  1
   10     3    12  1
   11     4     9  1
   12     7     8  1
   13     1     2  3
   14     1    10  1
   15     8    16  1
   16     8     9  1
   17     8    17  1
   18     9    19  1
   19     9    18  1
