@<TRIPOS>MOLECULE
generated_molecule
17 16 0 0 0
SMALL
NO_CHARGES

@<TRIPOS>ATOM
     1  C1         0.0373      2.1985     -1.7785  C       1  LIG       0.0000
     2  O2        -0.8924      1.3023     -1.1112  O       1  LIG       0.0000
     3  C3        -0.4660      0.6971      0.0700  C       1  LIG       0.0000
     4  C4        -0.6106     -0.6382      0.8591  C       1  LIG       0.0000
     5  O5        -1.0868     -1.7496      1.5625  O       1  LIG       0.0000
     6  C6         0.4480     -1.6762      0.2631  C       1  LIG       0.0000
     7  C7         1.7887     -1.7281      0.8129  C       1  LIG       0.0000
     8  N8         2.8881     -1.8552      1.2671  N       1  LIG       0.0000
     9  H9        -0.4913      2.6302     -2.5613  H       1  LIG       0.0000
    10  H10        0.8991      1.5868     -1.9762  H       1  LIG       0.0000
    11  H11        0.4771      3.0247     -1.1380  H       1  LIG       0.0000
    12  H12       -0.9080      1.1219      0.9155  H       1  LIG       0.0000
    13  H13        0.3482      0.8775     -0.5181  H       1  LIG       0.0000
    14  H14       -1.2287     -0.0181      1.4249  H       1  LIG       0.0000
    15  H15       -1.8056     -1.7318      2.2106  H       1  LIG       0.0000
    16  H16        0.1921     -1.2907     -0.6765  H       1  LIG       0.0000
    17  H17        0.4109     -2.7510      0.3742  H       1  LIG       0.0000
@<TRIPOS>BOND
    1     1    10  1
    2     5    15  1
    3     4     5  1
    4     1     2  1
    5     1     9  1
    6     1    11  1
    7     2     3  1
    8     4    14  1
    9     3     4  1
   10     4     6  1
   11     3    12  1
   12     3    13  1
   13     7     8  3
   14     6     7  1
   15     6    16  1
   16     6    17  1
