@<TRIPOS>MOLECULE
generated_molecule
17 18 0 0 0
SMALL
NO_CHARGES

@<TRIPOS>ATOM
     1  C1         1.0350      3.6407      0.6573  C       1  LIG       0.0000
     2  C2         1.1363      2.4828      0.2619  C       1  LIG       0.0000
     3  C3         1.3035      1.1202     -0.2718  C       1  LIG       0.0000
     4  O4         0.3142      0.5408     -1.1290  O       1  LIG       0.0000
     5  C5        -0.7190     -0.2825     -0.7985  C       1  LIG       0.0000
     6  C6        -1.7537     -1.3736     -0.2279  C       1  LIG       0.0000
     7  C7        -0.5826     -2.2499      0.2094  C       1  LIG       0.0000
     8  C8         0.1381     -0.9301      0.1989  C       1  LIG       0.0000
     9  C9         1.1021     -0.1058      0.5987  C       1  LIG       0.0000
    10  H10        0.9389      4.6170      0.9964  H       1  LIG       0.0000
    11  H11        2.2596      1.3260     -0.7451  H       1  LIG       0.0000
    12  H12       -1.2742      0.2109     -1.5821  H       1  LIG       0.0000
    13  H13       -2.3098     -2.1906     -0.6991  H       1  LIG       0.0000
    14  H14       -2.3899     -0.7179      0.3476  H       1  LIG       0.0000
    15  H15       -1.0494     -2.8784      0.9982  H       1  LIG       0.0000
    16  H16        0.1546     -2.9006     -0.2813  H       1  LIG       0.0000
    17  H17        1.6963     -0.3091      1.4663  H       1  LIG       0.0000
@<TRIPOS>BOND
    1     3    11  1
    2     9    17  1
    3     3     9  1
    4     2     3  1
    5     3     4  1
    6     8     9  2
    7     1     2  3
    8     1    10  1
    9     5     8  1
   10     7     8  1
   11     4     5  1
   12     5    12  1
   13     5     6  1
   14     7    15  1
   15     7    16  1
   16     6     7  1
   17     6    14  1
   18     6    13  1
