@<TRIPOS>MOLECULE
generated_molecule
17 16 0 0 0
SMALL
NO_CHARGES

@<TRIPOS>ATOM
     1  C1         1.3187     -0.0450      2.7418  C       1  LIG       0.0000
     2  C2         0.4380      0.4408      2.0302  C       1  LIG       0.0000
     3  C3        -0.6500      1.0086      1.1919  C       1  LIG       0.0000
     4  C4        -0.4990      1.1865     -0.3304  C       1  LIG       0.0000
     5  C5        -0.5428     -0.2752     -0.8407  C       1  LIG       0.0000
     6  C6         0.6118     -0.8968     -0.1565  C       1  LIG       0.0000
     7  C7         1.5295     -1.3718      0.4231  C       1  LIG       0.0000
     8  C8        -0.5638     -0.7392     -2.2649  C       1  LIG       0.0000
     9  C9        -0.6380     -1.0894     -3.4283  C       1  LIG       0.0000
    10  H10        2.0614     -0.4731      3.3652  H       1  LIG       0.0000
    11  H11       -1.4379      0.3021      1.2513  H       1  LIG       0.0000
    12  H12       -0.8240      1.9869      1.5722  H       1  LIG       0.0000
    13  H13       -1.2749      1.7856     -0.8193  H       1  LIG       0.0000
    14  H14        0.3853      1.7842     -0.6513  H       1  LIG       0.0000
    15  H15       -1.5785     -0.4213     -0.6156  H       1  LIG       0.0000
    16  H16        2.3731     -1.7974      0.9650  H       1  LIG       0.0000
    17  H17       -0.7090     -1.3853     -4.4338  H       1  LIG       0.0000
@<TRIPOS>BOND
    1     4    14  1
    2     5    15  1
    3     3    11  1
    4     9    17  1
    5     8     9  3
    6     5     8  1
    7     1    10  1
    8     1     2  3
    9     2     3  1
   10     3     4  1
   11     4     5  1
   12     4    13  1
   13     3    12  1
   14     5     6  1
   15     6     7  3
   16     7    16  1
