@<TRIPOS>MOLECULE
generated_molecule
20 21 0 0 0
SMALL
NO_CHARGES

@<TRIPOS>ATOM
     1  C1         1.9530     -1.2159      0.7187  C       1  LIG       0.0000
     2  C2         1.7652     -0.2614     -0.4974  C       1  LIG       0.0000
     3  C3         0.2657      0.0370     -0.1363  C       1  LIG       0.0000
     4  C4         0.4291     -1.0375      0.9685  C       1  LIG       0.0000
     5  C5        -0.9221     -0.1106     -1.1378  C       1  LIG       0.0000
     6  C6        -2.1940      0.5827     -0.5074  C       1  LIG       0.0000
     7  C7        -1.4680      1.6493      0.2811  C       1  LIG       0.0000
     8  C8        -0.1405      1.3845      0.3730  C       1  LIG       0.0000
     9  H9         1.9088     -2.2131      1.1773  H       1  LIG       0.0000
    10  H10        3.0049     -0.8771      0.8289  H       1  LIG       0.0000
    11  H11        2.1507      0.7268     -0.6262  H       1  LIG       0.0000
    12  H12        2.1842     -0.9222     -1.2962  H       1  LIG       0.0000
    13  H13        0.2604     -0.6695      1.9829  H       1  LIG       0.0000
    14  H14       -0.1901     -1.9012      0.7607  H       1  LIG       0.0000
    15  H15       -0.9322     -1.1597     -1.2492  H       1  LIG       0.0000
    16  H16       -0.9186      0.4155     -2.1068  H       1  LIG       0.0000
    17  H17       -3.0520      1.2685     -0.2060  H       1  LIG       0.0000
    18  H18       -2.6669     -0.3099     -0.8313  H       1  LIG       0.0000
    19  H19       -1.9882      2.5104      0.7063  H       1  LIG       0.0000
    20  H20        0.5505      2.1032      0.7970  H       1  LIG       0.0000
@<TRIPOS>BOND
    1     4    14  1
    2     1    10  1
    3     2    11  1
    4     5    16  1
    5     5    15  1
    6     1     4  1
    7     1     2  1
    8     1     9  1
    9     4    13  1
   10     3     4  1
   11     2     3  1
   12     2    12  1
   13     3     5  1
   14     5     6  1
   15     3     8  1
   16     6    18  1
   17     6    17  1
   18     6     7  1
   19     7     8  2
   20     8    20  1
   21     7    19  1
