@<TRIPOS>MOLECULE
generated_molecule
21 22 0 0 0
SMALL
NO_CHARGES

@<TRIPOS>ATOM
     1  C1        -0.7635      1.2229     -0.2825  C       1  LIG       0.0000
     2  C2        -0.3939      0.2974     -1.5454  C       1  LIG       0.0000
     3  C3        -0.8393     -0.5308     -0.3901  C       1  LIG       0.0000
     4  C4        -2.0006      0.3698     -0.6149  C       1  LIG       0.0000
     5  C5         0.0047     -0.9597      0.4379  C       1  LIG       0.0000
     6  C6         1.0740     -0.5165     -0.4642  C       1  LIG       0.0000
     7  C7         1.6106      0.3567      0.7506  C       1  LIG       0.0000
     8  O8         0.9378     -0.1135      1.9105  O       1  LIG       0.0000
     9  C9         0.2311     -1.2864      1.8689  C       1  LIG       0.0000
    10  H10        0.3033      1.4731     -0.2111  H       1  LIG       0.0000
    11  H11       -1.3348      1.6893      0.4846  H       1  LIG       0.0000
    12  H12       -0.7998     -0.3060     -2.2758  H       1  LIG       0.0000
    13  H13        0.5203      0.8345     -1.9284  H       1  LIG       0.0000
    14  H14       -2.4220      1.0559     -1.3911  H       1  LIG       0.0000
    15  H15       -2.7098     -0.2702     -0.1915  H       1  LIG       0.0000
    16  H16        1.5616     -1.4009     -0.9177  H       1  LIG       0.0000
    17  H17        0.8053      0.0995     -1.3474  H       1  LIG       0.0000
    18  H18        1.3550      1.3438      0.4305  H       1  LIG       0.0000
    19  H19        2.6137      0.2115      1.0518  H       1  LIG       0.0000
    20  H20        0.9528     -1.8410      2.4842  H       1  LIG       0.0000
    21  H21       -0.7067     -1.7293      2.1410  H       1  LIG       0.0000
@<TRIPOS>BOND
    1     1    11  1
    2     1    10  1
    3     1     4  1
    4     1     2  1
    5     4    15  1
    6     2    12  1
    7     3     4  1
    8     4    14  1
    9     2     3  1
   10     2    13  1
   11     3     5  2
   12     9    20  1
   13     6    17  1
   14     7    19  1
   15     5     6  1
   16     5     9  1
   17     6     7  1
   18     6    16  1
   19     9    21  1
   20     8     9  1
   21     7     8  1
   22     7    18  1
