@<TRIPOS>MOLECULE
generated_molecule
18 18 0 0 0
SMALL
NO_CHARGES

@<TRIPOS>ATOM
     1  C1         0.7544     -0.1502     -1.5346  C       1  LIG       0.0000
     2  C2         0.4433      0.4344     -0.1084  C       1  LIG       0.0000
     3  C3         1.7840      0.9433      0.3721  C       1  LIG       0.0000
     4  O4         0.3106      1.1513      1.0683  O       1  LIG       0.0000
     5  C5        -0.7379      0.4351      1.6136  C       1  LIG       0.0000
     6  C6        -1.0505      0.0409      0.1364  C       1  LIG       0.0000
     7  C7        -1.6725     -1.2368     -0.2354  C       1  LIG       0.0000
     8  C8        -2.2503     -2.2923     -0.5729  C       1  LIG       0.0000
     9  H9        -0.1561     -0.3843     -2.0975  H       1  LIG       0.0000
    10  H10        1.3548     -1.0323     -1.4072  H       1  LIG       0.0000
    11  H11        1.3346      0.5548     -2.1507  H       1  LIG       0.0000
    12  H12        1.6510      1.8187      1.0207  H       1  LIG       0.0000
    13  H13        2.4214      1.2422     -0.4640  H       1  LIG       0.0000
    14  H14        2.3120      0.1940      0.9702  H       1  LIG       0.0000
    15  H15       -0.8139     -0.5033      2.2036  H       1  LIG       0.0000
    16  H16       -1.0977      1.2580      2.2372  H       1  LIG       0.0000
    17  H17       -1.8447      0.7212     -0.2000  H       1  LIG       0.0000
    18  H18       -2.7425     -3.1947     -0.8516  H       1  LIG       0.0000
@<TRIPOS>BOND
    1     3    12  1
    2     1    10  1
    3     2     4  1
    4     4     5  1
    5     3    13  1
    6     2     3  1
    7     3    14  1
    8     1     2  1
    9     1     9  1
   10     1    11  1
   11     2     6  1
   12     5    15  1
   13     5    16  1
   14     5     6  1
   15     6    17  1
   16     6     7  1
   17     7     8  3
   18     8    18  1
