@<TRIPOS>MOLECULE
generated_molecule
18 19 0 0 0
SMALL
NO_CHARGES

@<TRIPOS>ATOM
     1  C1         0.3187      1.8136     -1.5422  C       1  LIG       0.0000
     2  C2         0.7866      0.6695     -0.5367  C       1  LIG       0.0000
     3  N3         0.4626      0.7660      0.8605  N       1  LIG       0.0000
     4  C4        -0.3235      0.0309      1.8092  C       1  LIG       0.0000
     5  O5        -0.5806      0.5132      2.9063  O       1  LIG       0.0000
     6  C6        -0.8308     -1.3659      1.4266  C       1  LIG       0.0000
     7  C7        -0.7578     -1.5624     -0.1209  C       1  LIG       0.0000
     8  O8        -0.7842     -1.1187     -1.4559  O       1  LIG       0.0000
     9  C9         0.3923     -0.8100     -0.7553  C       1  LIG       0.0000
    10  H10        0.8341      2.7657     -1.3644  H       1  LIG       0.0000
    11  H11       -0.7402      1.9477     -1.4183  H       1  LIG       0.0000
    12  H12        0.4987      1.5697     -2.6137  H       1  LIG       0.0000
    13  H13        1.8619      0.8428     -0.8023  H       1  LIG       0.0000
    14  H14        1.1033      1.4776      1.1229  H       1  LIG       0.0000
    15  H15       -1.5710     -2.1238      1.2871  H       1  LIG       0.0000
    16  H16       -0.5289     -1.5908      2.5126  H       1  LIG       0.0000
    17  H17       -1.4087     -2.3952     -0.3509  H       1  LIG       0.0000
    18  H18        1.2675     -1.4298     -0.9648  H       1  LIG       0.0000
@<TRIPOS>BOND
    1     4     5  2
    2     3    14  1
    3     3     4  1
    4     4     6  1
    5     2     3  1
    6     1    11  1
    7     6    16  1
    8     6    15  1
    9     6     7  1
   10     1    10  1
   11     1     2  1
   12     1    12  1
   13     2    13  1
   14     2     9  1
   15     7     9  1
   16     7     8  1
   17     7    17  1
   18     8     9  1
   19     9    18  1
