@<TRIPOS>MOLECULE
generated_molecule
19 19 0 0 0
SMALL
NO_CHARGES

@<TRIPOS>ATOM
     1  C1         0.6406      0.6825      2.7385  C       1  LIG       0.0000
     2  O2         0.7292      0.2470      1.4402  O       1  LIG       0.0000
     3  C3         0.5423      0.7656      0.2117  C       1  LIG       0.0000
     4  C4         0.0850     -0.4876     -0.5485  C       1  LIG       0.0000
     5  C5        -0.3191      0.3779     -1.7631  C       1  LIG       0.0000
     6  C6        -1.7345     -0.2598     -1.4852  C       1  LIG       0.0000
     7  O7        -1.2009     -1.0629     -0.4081  O       1  LIG       0.0000
     8  C8         0.7825     -1.8289     -0.5475  C       1  LIG       0.0000
     9  O9         0.9877     -2.4895      0.4580  O       1  LIG       0.0000
    10  H10        0.0170     -0.0436      3.0842  H       1  LIG       0.0000
    11  H11        0.3676      1.7401      2.6534  H       1  LIG       0.0000
    12  H12        1.4958      0.7229      3.4544  H       1  LIG       0.0000
    13  H13       -0.2216      1.5606      0.1812  H       1  LIG       0.0000
    14  H14        1.4468      1.1969     -0.2048  H       1  LIG       0.0000
    15  H15        0.0572      0.0913     -2.7524  H       1  LIG       0.0000
    16  H16       -0.1395      1.4192     -1.5480  H       1  LIG       0.0000
    17  H17       -2.5875      0.1211     -0.9284  H       1  LIG       0.0000
    18  H18       -2.0192     -0.5765     -2.4882  H       1  LIG       0.0000
    19  H19        1.0706     -2.1762     -1.5475  H       1  LIG       0.0000
@<TRIPOS>BOND
    1     6    18  1
    2     6    17  1
    3     6     7  1
    4     4     7  1
    5     5     6  1
    6     1    11  1
    7     3    14  1
    8     1    10  1
    9     1     2  1
   10     2     3  1
   11     4     5  1
   12     3     4  1
   13     4     8  1
   14     1    12  1
   15     5    16  1
   16     5    15  1
   17     3    13  1
   18     8    19  1
   19     8     9  2
