@<TRIPOS>MOLECULE
generated_molecule
21 22 0 0 0
SMALL
NO_CHARGES

@<TRIPOS>ATOM
     1  C1        -0.7727      2.2855      0.1363  C       1  LIG       0.0000
     2  C2        -0.3916      0.8563     -0.1279  C       1  LIG       0.0000
     3  O3        -0.3169     -0.5062      0.3143  O       1  LIG       0.0000
     4  C4        -0.0109     -1.5245      1.0931  C       1  LIG       0.0000
     5  C5         1.0258     -2.6179      1.1342  C       1  LIG       0.0000
     6  C6         0.6432     -1.8658     -0.1570  C       1  LIG       0.0000
     7  C7         0.3615     -0.4465     -0.6692  C       1  LIG       0.0000
     8  C8         0.3316      1.1185     -0.9276  C       1  LIG       0.0000
     9  C9        -0.9587     -0.2605     -0.9469  C       1  LIG       0.0000
    10  H10       -1.2520      2.4542      1.1022  H       1  LIG       0.0000
    11  H11        0.1345      2.9327      0.0987  H       1  LIG       0.0000
    12  H12       -1.4608      2.7430     -0.6246  H       1  LIG       0.0000
    13  H13        0.3120      1.5359     -0.1620  H       1  LIG       0.0000
    14  H14       -0.4547     -1.7126      2.0799  H       1  LIG       0.0000
    15  H15        2.0882     -2.4992      1.4034  H       1  LIG       0.0000
    16  H16        0.6088     -3.5701      1.5487  H       1  LIG       0.0000
    17  H17        0.8954     -2.7237     -0.7961  H       1  LIG       0.0000
    18  H18       -0.0955      1.4111     -1.9074  H       1  LIG       0.0000
    19  H19       -0.3594      1.6882     -0.2732  H       1  LIG       0.0000
    20  H20        1.3202      1.4724     -0.8126  H       1  LIG       0.0000
    21  H21       -1.6481     -0.7708     -1.5059  H       1  LIG       0.0000
@<TRIPOS>BOND
    1     4    14  1
    2     5    15  1
    3     3     4  1
    4     4     5  1
    5     4     6  1
    6     2     3  1
    7     5    16  1
    8     5     6  1
    9     1    11  1
   10     1    10  1
   11     1     2  1
   12     1    12  1
   13     2    13  1
   14     2     9  1
   15     6    17  1
   16     6     7  1
   17     7     9  2
   18     9    21  1
   19     7     8  1
   20     8    18  1
   21     8    20  1
   22     8    19  1
