@<TRIPOS>MOLECULE
generated_molecule
17 18 0 0 0
SMALL
NO_CHARGES

@<TRIPOS>ATOM
     1  C1        -1.9581      0.2437     -0.4765  C       1  LIG       0.0000
     2  C2        -0.7873      0.2787     -0.3635  C       1  LIG       0.0000
     3  C3         0.6573      0.3548     -0.3438  C       1  LIG       0.0000
     4  C4         1.5408      0.9058      0.6895  C       1  LIG       0.0000
     5  O5         0.5238      1.4124     -0.0941  O       1  LIG       0.0000
     6  C6        -0.3474      0.5010     -0.7807  C       1  LIG       0.0000
     7  C7        -0.8404     -0.7026      0.0769  C       1  LIG       0.0000
     8  C8         0.0156     -1.3151      0.8914  C       1  LIG       0.0000
     9  C9         1.3085     -0.6166      0.7005  C       1  LIG       0.0000
    10  H10       -3.0101      0.2051     -0.5885  H       1  LIG       0.0000
    11  H11        1.2030      0.8280     -1.1473  H       1  LIG       0.0000
    12  H12        2.3707      1.1433      1.3610  H       1  LIG       0.0000
    13  H13        0.0080     -0.1075     -1.6374  H       1  LIG       0.0000
    14  H14       -0.9960      1.2785     -1.0264  H       1  LIG       0.0000
    15  H15       -1.8267     -1.1111      0.0750  H       1  LIG       0.0000
    16  H16       -0.0871     -2.1713      1.5855  H       1  LIG       0.0000
    17  H17        2.2253     -1.1271      1.0784  H       1  LIG       0.0000
@<TRIPOS>BOND
    1     8    16  1
    2     9    17  1
    3     3    11  1
    4     3     9  1
    5     8     9  1
    6     4     9  1
    7     2     3  1
    8     3     4  1
    9     7     8  2
   10     1     2  3
   11     1    10  1
   12     7    15  1
   13     6     7  1
   14     4    12  1
   15     4     5  1
   16     5     6  1
   17     6    13  1
   18     6    14  1
