@<TRIPOS>MOLECULE
generated_molecule
25 25 0 0 0
SMALL
NO_CHARGES

@<TRIPOS>ATOM
     1  C1        -1.8494      1.4369      1.3254  C       1  LIG       0.0000
     2  C2        -0.2256      1.1062      1.1454  C       1  LIG       0.0000
     3  C3         0.8860      0.4607      0.2140  C       1  LIG       0.0000
     4  C4         0.9053     -0.1508     -1.2952  C       1  LIG       0.0000
     5  C5        -0.2622     -1.0640     -1.4955  C       1  LIG       0.0000
     6  C6        -0.0678     -2.0428     -0.2780  C       1  LIG       0.0000
     7  C7         0.4211     -0.7746      0.4590  C       1  LIG       0.0000
     8  C8         0.6513      0.2973     -0.7194  C       1  LIG       0.0000
     9  O9        -0.1811      0.2194     -1.8528  O       1  LIG       0.0000
    10  H10       -2.0707      2.4130      1.7839  H       1  LIG       0.0000
    11  H11       -2.3619      1.4850      0.3375  H       1  LIG       0.0000
    12  H12       -2.3731      0.7073      1.9145  H       1  LIG       0.0000
    13  H13       -0.2836      2.1740      1.1374  H       1  LIG       0.0000
    14  H14       -0.0327      0.3742      1.8162  H       1  LIG       0.0000
    15  H15        0.9354     -0.2085      1.0014  H       1  LIG       0.0000
    16  H16        1.6690      1.0455     -0.1435  H       1  LIG       0.0000
    17  H17        1.7809     -0.7434     -1.4716  H       1  LIG       0.0000
    18  H18        0.7038      0.4639     -2.1660  H       1  LIG       0.0000
    19  H19       -1.0445     -1.6615     -2.0427  H       1  LIG       0.0000
    20  H20       -0.8672     -2.7264     -0.5541  H       1  LIG       0.0000
    21  H21        0.6345     -2.7268      0.2624  H       1  LIG       0.0000
    22  H22        1.3503     -0.5463      0.9645  H       1  LIG       0.0000
    23  H23       -0.3411     -0.9046      1.2215  H       1  LIG       0.0000
    24  H24        1.7478      0.1197     -0.6698  H       1  LIG       0.0000
    25  H25        0.2754      1.2467     -0.8944  H       1  LIG       0.0000
@<TRIPOS>BOND
    1     2    14  1
    2     1    11  1
    3     1    10  1
    4     1     2  1
    5     1    12  1
    6     2    13  1
    7     2     3  1
    8     4    18  1
    9     3    15  1
   10     3     4  1
   11     3    16  1
   12     4    17  1
   13     4     5  1
   14     6    21  1
   15     8    25  1
   16     5     9  1
   17     8     9  1
   18     5     6  1
   19     5    19  1
   20     6    20  1
   21     6     7  1
   22     7     8  1
   23     8    24  1
   24     7    23  1
   25     7    22  1
