@<TRIPOS>MOLECULE
generated_molecule
19 21 0 0 0
SMALL
NO_CHARGES

@<TRIPOS>ATOM
     1  C1        -1.8313      0.5384     -0.5874  C       1  LIG       0.0000
     2  C2        -1.1736     -0.8545     -0.4450  C       1  LIG       0.0000
     3  O3        -0.7022     -1.3254      0.7751  O       1  LIG       0.0000
     4  C4         0.3581     -0.4361      0.6180  C       1  LIG       0.0000
     5  C5         1.8426     -0.4872      0.9489  C       1  LIG       0.0000
     6  C6         1.6032      0.0159     -0.4353  C       1  LIG       0.0000
     7  O7         0.9243      1.2453     -0.2238  O       1  LIG       0.0000
     8  C8        -0.0767      1.0315      0.7086  C       1  LIG       0.0000
     9  C9         0.3193     -0.8593     -0.7945  C       1  LIG       0.0000
    10  H10       -1.0928      1.2404     -0.9281  H       1  LIG       0.0000
    11  H11       -2.6569      0.4604     -1.2903  H       1  LIG       0.0000
    12  H12       -2.2162      0.9417      0.3617  H       1  LIG       0.0000
    13  H13       -1.8599     -1.6424     -0.8278  H       1  LIG       0.0000
    14  H14        1.7277     -1.0887      1.8627  H       1  LIG       0.0000
    15  H15        2.8834     -0.1267      0.8994  H       1  LIG       0.0000
    16  H16        2.5716      0.0795     -0.9346  H       1  LIG       0.0000
    17  H17       -0.4371      0.9043      1.7086  H       1  LIG       0.0000
    18  H18       -0.6216      1.8825      0.2279  H       1  LIG       0.0000
    19  H19        0.4381     -1.5196     -1.6443  H       1  LIG       0.0000
@<TRIPOS>BOND
    1     1    11  1
    2     2     3  1
    3     3     4  1
    4     1    10  1
    5     1     2  1
    6     1    12  1
    7     2    13  1
    8     8    17  1
    9     2     9  1
   10     8    18  1
   11     4     8  1
   12     4     5  1
   13     4     9  1
   14     7     8  1
   15     5    15  1
   16     5    14  1
   17     5     6  1
   18     9    19  1
   19     6     9  1
   20     6     7  1
   21     6    16  1
