@<TRIPOS>MOLECULE
generated_molecule
19 20 0 0 0
SMALL
NO_CHARGES

@<TRIPOS>ATOM
     1  C1         1.1563      2.2466     -0.0917  C       1  LIG       0.0000
     2  C2         1.4245      0.7068      0.1639  C       1  LIG       0.0000
     3  C3         0.7449     -0.4415     -0.6758  C       1  LIG       0.0000
     4  C4        -0.5818     -0.9701     -0.1413  C       1  LIG       0.0000
     5  C5        -1.3728     -2.3295     -0.2970  C       1  LIG       0.0000
     6  C6        -1.8182     -1.3525      0.7812  C       1  LIG       0.0000
     7  O7        -1.8471      0.0225      1.1031  O       1  LIG       0.0000
     8  C8        -0.8071      0.4345      0.3497  C       1  LIG       0.0000
     9  O9        -0.2263      1.4880      0.1302  O       1  LIG       0.0000
    10  H10        0.3324      2.5343      0.5526  H       1  LIG       0.0000
    11  H11        0.8749      2.4585     -1.1376  H       1  LIG       0.0000
    12  H12        1.9980      2.8989      0.0680  H       1  LIG       0.0000
    13  H13        2.4314      0.4432      0.0456  H       1  LIG       0.0000
    14  H14        1.0653      0.7669      1.2022  H       1  LIG       0.0000
    15  H15        1.4593     -1.2446     -0.7111  H       1  LIG       0.0000
    16  H16        0.5955     -0.0604     -1.6948  H       1  LIG       0.0000
    17  H17       -2.2945     -2.5498     -0.8226  H       1  LIG       0.0000
    18  H18       -0.6553     -3.1218     -0.2329  H       1  LIG       0.0000
    19  H19       -2.4792     -1.9299      1.4083  H       1  LIG       0.0000
@<TRIPOS>BOND
    1     8     9  2
    2     2    14  1
    3     1    11  1
    4     1    10  1
    5     1     2  1
    6     1    12  1
    7     2    13  1
    8     2     3  1
    9     7     8  1
   10     4     8  1
   11     3    15  1
   12     6     7  1
   13     3     4  1
   14     3    16  1
   15     4     5  1
   16     4     6  1
   17     5    18  1
   18     5     6  1
   19     5    17  1
   20     6    19  1
