@<TRIPOS>MOLECULE
generated_molecule
19 19 0 0 0
SMALL
NO_CHARGES

@<TRIPOS>ATOM
     1  C1        -1.6832      2.3485     -0.2090  C       1  LIG       0.0000
     2  C2        -0.4660      1.7885      0.6044  C       1  LIG       0.0000
     3  C3         0.2380      0.5705     -0.0201  C       1  LIG       0.0000
     4  O4         1.3864     -0.1364      0.2845  O       1  LIG       0.0000
     5  C5         1.9309     -1.3506     -0.0018  C       1  LIG       0.0000
     6  C6         0.8990     -2.4098      0.3696  C       1  LIG       0.0000
     7  O7         0.9966     -3.4062      1.0933  O       1  LIG       0.0000
     8  C8        -0.3337     -1.9629     -0.3850  C       1  LIG       0.0000
     9  O9        -0.4065     -0.6608      0.0113  O       1  LIG       0.0000
    10  H10       -1.6046      1.9937     -1.2470  H       1  LIG       0.0000
    11  H11       -2.5969      1.9328      0.2207  H       1  LIG       0.0000
    12  H12       -1.7458      3.4197     -0.2559  H       1  LIG       0.0000
    13  H13        0.3156      2.5466      0.7222  H       1  LIG       0.0000
    14  H14       -0.9642      1.6987      1.6068  H       1  LIG       0.0000
    15  H15        0.4573      1.2384     -0.8173  H       1  LIG       0.0000
    16  H16        2.8026     -1.3790      0.6266  H       1  LIG       0.0000
    17  H17        2.1732     -1.5490     -1.0501  H       1  LIG       0.0000
    18  H18       -0.2585     -2.0554     -1.4843  H       1  LIG       0.0000
    19  H19       -1.1402     -2.6275     -0.0690  H       1  LIG       0.0000
@<TRIPOS>BOND
    1     1    11  1
    2     2    14  1
    3     2    13  1
    4     1     2  1
    5     1    10  1
    6     1    12  1
    7     2     3  1
    8     3     9  1
    9     8     9  1
   10     3    15  1
   11     3     4  1
   12     8    18  1
   13     8    19  1
   14     6     8  1
   15     4     5  1
   16     5     6  1
   17     6     7  2
   18     5    16  1
   19     5    17  1
