@<TRIPOS>MOLECULE
generated_molecule
19 22 0 0 0
SMALL
NO_CHARGES

@<TRIPOS>ATOM
     1  C1        -1.3282      1.1689     -0.5680  C       1  LIG       0.0000
     2  C2         0.1660      0.9621     -1.0047  C       1  LIG       0.0000
     3  C3         1.4545      0.1285     -0.5808  C       1  LIG       0.0000
     4  C4         1.5861     -0.8109      0.6749  C       1  LIG       0.0000
     5  C5         0.1408     -0.9873      1.2252  C       1  LIG       0.0000
     6  O6        -0.5628      0.0009      1.9309  O       1  LIG       0.0000
     7  C7        -1.2877      0.6002      0.8528  C       1  LIG       0.0000
     8  C8        -0.8239     -0.6415      0.0871  C       1  LIG       0.0000
     9  C9         0.2184     -0.5325     -1.0882  C       1  LIG       0.0000
    10  H10       -1.7693      0.8225     -1.4907  H       1  LIG       0.0000
    11  H11       -1.9189      2.0110     -0.1626  H       1  LIG       0.0000
    12  H12        0.6064      1.8529     -1.4692  H       1  LIG       0.0000
    13  H13        2.2685      0.6179     -1.1409  H       1  LIG       0.0000
    14  H14        1.8167     -1.8671      0.7633  H       1  LIG       0.0000
    15  H15        2.4475     -0.2380      1.0567  H       1  LIG       0.0000
    16  H16        0.0887     -1.8970      1.8322  H       1  LIG       0.0000
    17  H17       -1.9204      1.2946      1.3859  H       1  LIG       0.0000
    18  H18       -1.6077     -1.1793     -0.4534  H       1  LIG       0.0000
    19  H19        0.4252     -1.3056     -1.8504  H       1  LIG       0.0000
@<TRIPOS>BOND
    1     1    11  1
    2     7    17  1
    3     9    19  1
    4     2    12  1
    5     1     7  1
    6     1     2  1
    7     1    10  1
    8     8    18  1
    9     7     8  1
   10     6     7  1
   11     2     9  1
   12     2     3  1
   13     8     9  1
   14     3     9  1
   15     5     8  1
   16     3    13  1
   17     3     4  1
   18     5     6  1
   19     5    16  1
   20     4     5  1
   21     4    15  1
   22     4    14  1
