@<TRIPOS>MOLECULE
generated_molecule
16 17 0 0 0
SMALL
NO_CHARGES

@<TRIPOS>ATOM
     1  C1        -1.9791      0.1044      0.4123  C       1  LIG       0.0000
     2  C2        -0.6047     -0.2425      0.0323  C       1  LIG       0.0000
     3  C3         0.1157     -0.9855      1.1686  C       1  LIG       0.0000
     4  C4         0.0945      0.4858      0.9644  C       1  LIG       0.0000
     5  O5        -0.2346      1.3871      1.6596  O       1  LIG       0.0000
     6  C6         0.6778      0.2862     -0.4345  C       1  LIG       0.0000
     7  N7        -0.3929      0.0310     -1.4068  N       1  LIG       0.0000
     8  C8         1.9231      0.4917     -1.1141  C       1  LIG       0.0000
     9  C9         2.9799      0.6924     -1.6779  C       1  LIG       0.0000
    10  H10       -2.0163      1.0669      0.9180  H       1  LIG       0.0000
    11  H11       -2.6267      0.1721     -0.4751  H       1  LIG       0.0000
    12  H12       -2.3744     -0.6618      1.0805  H       1  LIG       0.0000
    13  H13       -0.0276     -1.1134      2.2659  H       1  LIG       0.0000
    14  H14        0.5505     -1.9133      0.7821  H       1  LIG       0.0000
    15  H15        0.0230     -0.6679     -2.0110  H       1  LIG       0.0000
    16  H16        3.8917      0.8667     -2.1641  H       1  LIG       0.0000
@<TRIPOS>BOND
    1     3    14  1
    2     1    11  1
    3     7    15  1
    4     2     7  1
    5     6     7  1
    6     2     3  1
    7     3    13  1
    8     3     4  1
    9     1     2  1
   10     1    10  1
   11     1    12  1
   12     2     6  1
   13     4     6  1
   14     4     5  2
   15     6     8  1
   16     8     9  3
   17     9    16  1
