@<TRIPOS>MOLECULE
generated_molecule
17 20 0 0 0
SMALL
NO_CHARGES

@<TRIPOS>ATOM
     1  C1        -0.7280     -1.9372      0.9067  C       1  LIG       0.0000
     2  C2        -0.8177     -2.1708     -0.4627  C       1  LIG       0.0000
     3  C3        -0.4265     -0.9313     -1.0150  C       1  LIG       0.0000
     4  C4         0.0681      0.2522     -0.3587  C       1  LIG       0.0000
     5  C5         0.7844      1.7015      0.1516  C       1  LIG       0.0000
     6  N6         0.1674      2.5740      0.8143  N       1  LIG       0.0000
     7  C7         0.4309      1.8478     -0.1477  C       1  LIG       0.0000
     8  C8         0.8294      0.2457     -0.5039  C       1  LIG       0.0000
     9  N9         0.1847     -0.9659      0.0902  N       1  LIG       0.0000
    10  H10       -0.5364     -1.5947      1.9312  H       1  LIG       0.0000
    11  H11       -1.4587     -2.7771      1.2224  H       1  LIG       0.0000
    12  H12       -1.1304     -3.1986     -0.7362  H       1  LIG       0.0000
    13  H13       -0.5534     -1.0092     -2.1057  H       1  LIG       0.0000
    14  H14        1.5870      2.3439      0.1712  H       1  LIG       0.0000
    15  H15       -0.5804      2.6353      1.6842  H       1  LIG       0.0000
    16  H16        0.5884      2.8062     -0.3513  H       1  LIG       0.0000
    17  H17        1.5913      0.1784     -1.2905  H       1  LIG       0.0000
@<TRIPOS>BOND
    1     1    11  1
    2     2    12  1
    3     1     9  1
    4     1     2  1
    5     1    10  1
    6     4     9  1
    7     8     9  1
    8     2     3  2
    9     5    14  1
   10     3     4  1
   11     3    13  1
   12     4     5  1
   13     4     7  1
   14     8    17  1
   15     5     8  1
   16     7     8  1
   17     5     6  1
   18     6     7  1
   19     7    16  1
   20     6    15  1
