@<TRIPOS>MOLECULE
generated_molecule
20 22 0 0 0
SMALL
NO_CHARGES

@<TRIPOS>ATOM
     1  C1         2.6984      0.2269      0.0619  C       1  LIG       0.0000
     2  O2         1.5794      0.2841     -0.7436  O       1  LIG       0.0000
     3  C3         0.3213     -0.2760     -0.8064  C       1  LIG       0.0000
     4  C4        -0.4551     -1.4979     -0.2544  C       1  LIG       0.0000
     5  C5        -0.9143     -2.1013      1.0972  C       1  LIG       0.0000
     6  N6        -0.9633     -0.6782      0.8734  N       1  LIG       0.0000
     7  C7        -0.7600      0.4345     -0.0446  C       1  LIG       0.0000
     8  C8        -1.9521      1.3466      0.1734  C       1  LIG       0.0000
     9  C9        -0.7147      1.8732     -0.5037  C       1  LIG       0.0000
    10  H10        2.3741      0.5280      1.0485  H       1  LIG       0.0000
    11  H11        3.1041     -0.7839      0.1043  H       1  LIG       0.0000
    12  H12        3.4536      0.8810     -0.3323  H       1  LIG       0.0000
    13  H13        0.5231     -0.4604     -1.8518  H       1  LIG       0.0000
    14  H14       -0.5301     -2.2320     -1.0674  H       1  LIG       0.0000
    15  H15       -0.1375     -2.4870      1.7340  H       1  LIG       0.0000
    16  H16       -1.8880     -2.5440      1.1634  H       1  LIG       0.0000
    17  H17       -2.2195      2.2594      0.7687  H       1  LIG       0.0000
    18  H18       -2.7149      0.6395      0.0403  H       1  LIG       0.0000
    19  H19       -0.2471      2.6822      0.0946  H       1  LIG       0.0000
    20  H20       -0.5572      1.9054     -1.5556  H       1  LIG       0.0000
@<TRIPOS>BOND
    1     9    20  1
    2     9    19  1
    3     7     9  1
    4     8     9  1
    5     3    13  1
    6     6     7  1
    7     7     8  1
    8     3     7  1
    9     4     6  1
   10     5     6  1
   11     8    17  1
   12     8    18  1
   13     3     4  1
   14     2     3  1
   15     4    14  1
   16     4     5  1
   17     1    11  1
   18     1     2  1
   19     5    15  1
   20     5    16  1
   21     1    10  1
   22     1    12  1
