@<TRIPOS>MOLECULE
generated_molecule
18 20 0 0 0
SMALL
NO_CHARGES

@<TRIPOS>ATOM
     1  C1         0.4258      2.3441      1.4019  C       1  LIG       0.0000
     2  O2        -0.1050      1.1803      0.9531  O       1  LIG       0.0000
     3  C3        -0.0662      0.2124     -0.0101  C       1  LIG       0.0000
     4  C4         1.3139     -0.3624      0.3193  C       1  LIG       0.0000
     5  N5         0.5943     -1.6879      0.2512  N       1  LIG       0.0000
     6  C6        -0.4000     -2.1426     -0.8054  C       1  LIG       0.0000
     7  C7        -0.9775     -1.2045     -1.8047  C       1  LIG       0.0000
     8  C8        -0.8178      0.0933     -1.3218  C       1  LIG       0.0000
     9  C9        -0.8046     -1.1021      0.2308  C       1  LIG       0.0000
    10  H10        1.4346      2.1944      1.7731  H       1  LIG       0.0000
    11  H11       -0.1806      2.7221      2.2009  H       1  LIG       0.0000
    12  H12        0.4512      3.0576      0.5826  H       1  LIG       0.0000
    13  H13        1.8208      0.5636     -0.0052  H       1  LIG       0.0000
    14  H14        2.0227     -0.9447      0.9470  H       1  LIG       0.0000
    15  H15       -0.2806     -3.2170     -0.8365  H       1  LIG       0.0000
    16  H16       -1.4395     -1.6123     -2.7282  H       1  LIG       0.0000
    17  H17       -1.2329      0.9466     -1.8517  H       1  LIG       0.0000
    18  H18       -1.7586     -1.0409      0.7038  H       1  LIG       0.0000
@<TRIPOS>BOND
    1     7    16  1
    2     8    17  1
    3     7     8  2
    4     6     7  1
    5     3     8  1
    6     1    11  1
    7     6    15  1
    8     6     9  1
    9     5     6  1
   10     2     3  1
   11     1     2  1
   12     3     9  1
   13     3     4  1
   14     9    18  1
   15     5     9  1
   16     1    10  1
   17     1    12  1
   18     4     5  1
   19     4    14  1
   20     4    13  1
