@<TRIPOS>MOLECULE
generated_molecule
17 16 0 0 0
SMALL
NO_CHARGES

@<TRIPOS>ATOM
     1  O1         3.1311      1.0029     -1.3807  O       1  LIG       0.0000
     2  C2         3.1651     -0.1420     -2.0114  C       1  LIG       0.0000
     3  C3        -0.7553     -0.7569      2.5732  C       1  LIG       0.0000
     4  C4        -1.5521      0.0847      1.4284  C       1  LIG       0.0000
     5  O5        -1.1140      1.3973      1.2331  O       1  LIG       0.0000
     6  C6        -1.8300     -0.6884      0.1348  C       1  LIG       0.0000
     7  O7        -2.4766     -1.7117      0.2322  O       1  LIG       0.0000
     8  C8        -1.3921     -0.1744     -1.1453  C       1  LIG       0.0000
     9  C9        -1.0503      0.2236     -2.2492  C       1  LIG       0.0000
    10  H10        3.2391      1.2814     -0.3776  H       1  LIG       0.0000
    11  H11        2.5670     -0.3817     -2.6590  H       1  LIG       0.0000
    12  H12        3.7397     -0.8229     -1.7361  H       1  LIG       0.0000
    13  H13       -0.3653     -0.3331      3.3290  H       1  LIG       0.0000
    14  H14       -0.5080     -1.7525      2.6436  H       1  LIG       0.0000
    15  H15       -2.3758      0.0393      2.0150  H       1  LIG       0.0000
    16  H16       -1.6610      2.1557      1.1775  H       1  LIG       0.0000
    17  H17       -0.7615      0.5788     -3.2076  H       1  LIG       0.0000
@<TRIPOS>BOND
    1     9    17  1
    2     8     9  3
    3     6     8  1
    4     3    14  1
    5     2    11  1
    6     4    15  1
    7     1    10  1
    8     1     2  1
    9     2     3  1
   10     3     4  1
   11     3    13  1
   12     4     6  1
   13     6     7  2
   14     2    12  1
   15     4     5  1
   16     5    16  1
