@<TRIPOS>MOLECULE
generated_molecule
20 20 0 0 0
SMALL
NO_CHARGES

@<TRIPOS>ATOM
     1  C1        -0.0721      2.3452     -0.7826  C       1  LIG       0.0000
     2  O2        -0.0218      0.9371     -0.5528  O       1  LIG       0.0000
     3  C3         0.3318      0.2042      0.5984  C       1  LIG       0.0000
     4  C4         0.0099     -1.2852      0.5677  C       1  LIG       0.0000
     5  C5        -1.4562     -1.0170      0.6946  C       1  LIG       0.0000
     6  N6        -0.6277     -0.5261     -0.4400  N       1  LIG       0.0000
     7  C7         0.6750      0.3336     -0.6734  C       1  LIG       0.0000
     8  C8         0.2890     -2.7871      0.4541  C       1  LIG       0.0000
     9  O9         0.6680     -3.5109      1.3568  O       1  LIG       0.0000
    10  H10        0.1669      2.4453     -1.7882  H       1  LIG       0.0000
    11  H11       -1.0316      2.7599     -0.5002  H       1  LIG       0.0000
    12  H12        0.6558      2.9049     -0.1363  H       1  LIG       0.0000
    13  H13        1.3700      0.1766      0.7302  H       1  LIG       0.0000
    14  H14       -0.2598      0.7456      1.3474  H       1  LIG       0.0000
    15  H15       -2.2724     -1.3421      0.0963  H       1  LIG       0.0000
    16  H16       -1.5785     -0.8272      1.7361  H       1  LIG       0.0000
    17  H17        1.2901     -0.1425     -1.4301  H       1  LIG       0.0000
    18  H18        0.2474      1.2418     -0.8595  H       1  LIG       0.0000
    19  H19        1.5049      0.5430      0.1451  H       1  LIG       0.0000
    20  H20        0.1116     -3.1991     -0.5637  H       1  LIG       0.0000
@<TRIPOS>BOND
    1     8     9  2
    2     1    10  1
    3     1    12  1
    4     8    20  1
    5     4     8  1
    6     1    11  1
    7     1     2  1
    8     3    13  1
    9     3     4  1
   10     4     6  1
   11     4     5  1
   12     2     3  1
   13     3    14  1
   14     5     6  1
   15     6     7  1
   16     5    15  1
   17     5    16  1
   18     7    18  1
   19     7    19  1
   20     7    17  1
