@<TRIPOS>MOLECULE
generated_molecule
19 20 0 0 0
SMALL
NO_CHARGES

@<TRIPOS>ATOM
     1  C1        -0.0454      0.4960     -2.3376  C       1  LIG       0.0000
     2  C2         0.0567     -0.3966     -1.0954  C       1  LIG       0.0000
     3  C3         0.8686     -0.0159      0.1601  C       1  LIG       0.0000
     4  O4         1.5228      1.1867      0.3236  O       1  LIG       0.0000
     5  C5        -0.2877      0.0844      1.1794  C       1  LIG       0.0000
     6  O6        -0.9717      0.9564      1.9559  O       1  LIG       0.0000
     7  C7        -0.0294     -1.2267      1.8958  C       1  LIG       0.0000
     8  O8        -0.9871     -1.4282      0.8906  O       1  LIG       0.0000
     9  C9        -1.0568     -0.3223     -0.0578  C       1  LIG       0.0000
    10  H10       -0.3889     -0.0653     -3.2183  H       1  LIG       0.0000
    11  H11        0.9233      0.9165     -2.5190  H       1  LIG       0.0000
    12  H12       -0.7686      1.3032     -2.1826  H       1  LIG       0.0000
    13  H13        0.1349     -1.4224     -1.4827  H       1  LIG       0.0000
    14  H14        1.5237     -0.8676      0.2362  H       1  LIG       0.0000
    15  H15        1.2972      1.9505     -0.1793  H       1  LIG       0.0000
    16  H16       -0.5563      1.7320      2.2808  H       1  LIG       0.0000
    17  H17        0.7438     -2.0339      1.7238  H       1  LIG       0.0000
    18  H18       -0.0740     -1.0014      2.9399  H       1  LIG       0.0000
    19  H19       -1.9053      0.1547     -0.5134  H       1  LIG       0.0000
@<TRIPOS>BOND
    1     4    15  1
    2     3     4  1
    3     3    14  1
    4     1    11  1
    5     2     3  1
    6     3     5  1
    7     6    16  1
    8     1     2  1
    9     1    10  1
   10     1    12  1
   11     7    18  1
   12     2    13  1
   13     2     9  1
   14     5     6  1
   15     5     7  1
   16     5     9  1
   17     7    17  1
   18     7     8  1
   19     8     9  1
   20     9    19  1
