@<TRIPOS>MOLECULE
generated_molecule
23 23 0 0 0
SMALL
NO_CHARGES

@<TRIPOS>ATOM
     1  C1         1.5185      1.7850     -0.4776  C       1  LIG       0.0000
     2  C2         1.8808      0.6277      0.5171  C       1  LIG       0.0000
     3  C3         0.7089     -0.2865      1.0137  C       1  LIG       0.0000
     4  C4         0.7291     -0.5780     -0.5465  C       1  LIG       0.0000
     5  C5        -0.3077      0.2857     -1.2278  C       1  LIG       0.0000
     6  C6        -1.6169      0.0691     -1.0140  C       1  LIG       0.0000
     7  C7        -2.0167     -1.1443     -0.1622  C       1  LIG       0.0000
     8  C8        -1.6398     -1.0288      1.3324  C       1  LIG       0.0000
     9  O9        -0.4246     -0.3209      1.8108  O       1  LIG       0.0000
    10  H10        2.2916      2.5356     -0.4758  H       1  LIG       0.0000
    11  H11        0.5618      2.2909     -0.2233  H       1  LIG       0.0000
    12  H12        1.3646      1.3872     -1.4784  H       1  LIG       0.0000
    13  H13        2.2948      1.1328      1.3920  H       1  LIG       0.0000
    14  H14        2.5620     -0.0307      0.0415  H       1  LIG       0.0000
    15  H15        0.7415     -0.8090      1.9021  H       1  LIG       0.0000
    16  H16        1.7794     -0.5291     -0.4755  H       1  LIG       0.0000
    17  H17        0.3884     -1.4480     -1.1092  H       1  LIG       0.0000
    18  H18        0.0114      1.0652     -1.9314  H       1  LIG       0.0000
    19  H19       -2.3714      0.7381     -1.4331  H       1  LIG       0.0000
    20  H20       -1.6816     -1.6672     -1.0856  H       1  LIG       0.0000
    21  H21       -2.9138     -1.5528      0.1972  H       1  LIG       0.0000
    22  H22       -1.1932     -1.4772      2.2156  H       1  LIG       0.0000
    23  H23       -2.6672     -1.0446      1.2179  H       1  LIG       0.0000
@<TRIPOS>BOND
    1     5    18  1
    2     4    16  1
    3     2    13  1
    4     3    15  1
    5     1    11  1
    6     4     5  1
    7     5     6  2
    8     3     4  1
    9     4    17  1
   10     6    19  1
   11     2     3  1
   12     3     9  1
   13     1     2  1
   14     2    14  1
   15     6     7  1
   16     1    10  1
   17     1    12  1
   18     8    22  1
   19     8     9  1
   20     7     8  1
   21     8    23  1
   22     7    20  1
   23     7    21  1
