@<TRIPOS>MOLECULE
generated_molecule
14 14 0 0 0
SMALL
NO_CHARGES

@<TRIPOS>ATOM
     1  C1        -1.1615      0.8871      1.9219  C       1  LIG       0.0000
     2  O2        -0.7749      0.1669      0.8355  O       1  LIG       0.0000
     3  C3         0.1655      0.0104     -0.0692  C       1  LIG       0.0000
     4  C4         0.0317     -0.7352     -1.1980  C       1  LIG       0.0000
     5  O5        -1.0461     -1.3375     -1.7498  O       1  LIG       0.0000
     6  N6         1.2245     -0.7709     -1.8184  N       1  LIG       0.0000
     7  N7         2.1380     -0.0021     -1.1489  N       1  LIG       0.0000
     8  C8         1.4644      0.4752     -0.1004  C       1  LIG       0.0000
     9  H9        -0.6303      1.8456      2.1455  H       1  LIG       0.0000
    10  H10       -2.1421      1.1099      1.6684  H       1  LIG       0.0000
    11  H11       -0.9711      0.2912      2.7654  H       1  LIG       0.0000
    12  H12       -1.6331     -1.8434     -1.1919  H       1  LIG       0.0000
    13  H13        1.4146     -1.2631     -2.6641  H       1  LIG       0.0000
    14  H14        1.9203      1.1659      0.6041  H       1  LIG       0.0000
@<TRIPOS>BOND
    1     1    10  1
    2     5    12  1
    3     1     2  1
    4     2     3  1
    5     1     9  1
    6     1    11  1
    7     4     5  1
    8     3     4  ar
    9     3     8  ar
   10     4     6  ar
   11     8    14  1
   12     7     8  ar
   13     6    13  1
   14     6     7  ar
