@<TRIPOS>MOLECULE
generated_molecule
19 20 0 0 0
SMALL
NO_CHARGES

@<TRIPOS>ATOM
     1  C1        -1.5056      1.9204      0.1669  C       1  LIG       0.0000
     2  O2        -0.6692      1.0382     -0.4987  O       1  LIG       0.0000
     3  C3        -0.1665     -0.1661     -0.8699  C       1  LIG       0.0000
     4  C4         0.5102     -1.5379     -1.0232  C       1  LIG       0.0000
     5  C5         1.7754     -0.9749     -0.3983  C       1  LIG       0.0000
     6  N6         1.1032     -0.3200      0.7848  N       1  LIG       0.0000
     7  C7         0.0625      0.4245      1.5057  C       1  LIG       0.0000
     8  C8        -0.3127     -0.6667      0.5445  C       1  LIG       0.0000
     9  H9        -2.4905      1.4981      0.2317  H       1  LIG       0.0000
    10  H10       -1.2587      2.1496      1.2129  H       1  LIG       0.0000
    11  H11       -1.4236      2.8181     -0.4111  H       1  LIG       0.0000
    12  H12       -0.0501      0.0189     -1.9158  H       1  LIG       0.0000
    13  H13        0.0181     -2.3764     -0.4830  H       1  LIG       0.0000
    14  H14        0.6625     -1.9258     -2.0651  H       1  LIG       0.0000
    15  H15        2.4440     -0.1426     -0.6474  H       1  LIG       0.0000
    16  H16        2.3914     -1.8892     -0.6087  H       1  LIG       0.0000
    17  H17       -0.8848      0.4221      1.9805  H       1  LIG       0.0000
    18  H18        0.7745      1.2076      1.7277  H       1  LIG       0.0000
    19  H19       -0.9802     -1.4979      0.7667  H       1  LIG       0.0000
@<TRIPOS>BOND
    1     5    15  1
    2     8    19  1
    3     3    12  1
    4     5     6  1
    5     6     8  1
    6     6     7  1
    7     5    16  1
    8     4     5  1
    9     3     8  1
   10     7     8  1
   11     4    13  1
   12     3     4  1
   13     2     3  1
   14     4    14  1
   15     1    10  1
   16     7    17  1
   17     7    18  1
   18     1     2  1
   19     1     9  1
   20     1    11  1
