@<TRIPOS>MOLECULE
generated_molecule
23 24 0 0 0
SMALL
NO_CHARGES

@<TRIPOS>ATOM
     1  C1         1.5599      0.1518      0.0980  C       1  LIG       0.0000
     2  C2         0.4010      1.1978      0.0236  C       1  LIG       0.0000
     3  C3        -0.9393      1.2857     -0.7327  C       1  LIG       0.0000
     4  C4        -1.2461     -0.0525     -0.0072  C       1  LIG       0.0000
     5  C5        -1.1632      1.4575     -0.0391  C       1  LIG       0.0000
     6  C6         0.0311     -0.8776      0.3090  C       1  LIG       0.0000
     7  C7         0.3216     -1.1873     -1.1210  C       1  LIG       0.0000
     8  C8        -0.0175     -1.4822      1.7222  C       1  LIG       0.0000
     9  O9         1.0933     -0.8044      1.2354  O       1  LIG       0.0000
    10  H10        2.4128      0.4727     -0.5278  H       1  LIG       0.0000
    11  H11        1.3175     -0.8585     -0.2172  H       1  LIG       0.0000
    12  H12        1.9478      0.0598      1.1320  H       1  LIG       0.0000
    13  H13        1.0566      1.8823      0.4452  H       1  LIG       0.0000
    14  H14       -0.9714      1.0022     -1.7545  H       1  LIG       0.0000
    15  H15       -1.3122      2.1917     -0.3227  H       1  LIG       0.0000
    16  H16       -2.0710     -0.7412      0.0770  H       1  LIG       0.0000
    17  H17       -1.6640      1.7436      0.8565  H       1  LIG       0.0000
    18  H18       -1.3910      1.8454     -0.9991  H       1  LIG       0.0000
    19  H19        0.3800     -0.2558     -1.7071  H       1  LIG       0.0000
    20  H20        1.2590     -1.7194     -1.2490  H       1  LIG       0.0000
    21  H21       -0.4854     -1.8055     -1.5291  H       1  LIG       0.0000
    22  H22       -0.4632     -0.9546      2.5888  H       1  LIG       0.0000
    23  H23       -0.0562     -2.5515      1.7188  H       1  LIG       0.0000
@<TRIPOS>BOND
    1     3    15  1
    2     7    21  1
    3     7    19  1
    4     1    11  1
    5     3    14  1
    6     7    20  1
    7     6     7  1
    8     3     4  1
    9     2     3  1
   10     1    10  1
   11     1     2  1
   12     1    12  1
   13     4    16  1
   14     4     6  1
   15     4     5  1
   16     2    13  1
   17     2     5  1
   18     6     9  1
   19     6     8  1
   20     8     9  1
   21     5    18  1
   22     5    17  1
   23     8    22  1
   24     8    23  1
