@<TRIPOS>MOLECULE
generated_molecule
20 22 0 0 0
SMALL
NO_CHARGES

@<TRIPOS>ATOM
     1  C1        -1.7117      1.6190     -0.4655  C       1  LIG       0.0000
     2  C2        -0.7952      0.4936     -0.0076  C       1  LIG       0.0000
     3  C3        -1.3513     -0.9373      0.3577  C       1  LIG       0.0000
     4  N4        -0.0375     -1.4296      0.9153  N       1  LIG       0.0000
     5  C5         1.1705     -1.6001      0.0254  C       1  LIG       0.0000
     6  C6         1.4784     -0.2223      0.5624  C       1  LIG       0.0000
     7  C7         1.5558      0.4773     -0.8248  C       1  LIG       0.0000
     8  O8         0.2232      0.9006     -0.8931  O       1  LIG       0.0000
     9  C9         0.0678      0.0192      1.1603  C       1  LIG       0.0000
    10  H10       -1.2251      2.1908     -1.2637  H       1  LIG       0.0000
    11  H11       -2.6441      1.2194     -0.8616  H       1  LIG       0.0000
    12  H12       -1.9419      2.3184      0.3449  H       1  LIG       0.0000
    13  H13       -1.5766     -1.7584      1.0185  H       1  LIG       0.0000
    14  H14       -2.1359     -0.7322     -0.3557  H       1  LIG       0.0000
    15  H15        0.5989     -2.2492     -0.6698  H       1  LIG       0.0000
    16  H16        2.2278     -1.7897     -0.0889  H       1  LIG       0.0000
    17  H17        2.2287     -0.1314      1.3692  H       1  LIG       0.0000
    18  H18        2.0207     -0.2718     -1.4566  H       1  LIG       0.0000
    19  H19        2.0192      1.4438     -1.0189  H       1  LIG       0.0000
    20  H20       -0.1717      0.4398      2.1525  H       1  LIG       0.0000
@<TRIPOS>BOND
    1     3    13  1
    2     3    14  1
    3     3     4  1
    4     2     3  1
    5     4     5  1
    6     4     9  1
    7     5    15  1
    8     1    11  1
    9     5    16  1
   10     5     6  1
   11     9    20  1
   12     2     9  1
   13     6     9  1
   14     1     2  1
   15     2     8  1
   16     1    10  1
   17     1    12  1
   18     6    17  1
   19     6     7  1
   20     7     8  1
   21     7    19  1
   22     7    18  1
