@<TRIPOS>MOLECULE
generated_molecule
16 16 0 0 0
SMALL
NO_CHARGES

@<TRIPOS>ATOM
     1  O1         0.8181     -1.1206      1.3906  O       1  LIG       0.0000
     2  C2         0.3374     -0.3905      0.3282  C       1  LIG       0.0000
     3  C3        -0.9805     -0.0655      1.0844  C       1  LIG       0.0000
     4  C4        -1.8150      0.0616     -0.1681  C       1  LIG       0.0000
     5  C5        -0.4103      0.4373     -0.7271  C       1  LIG       0.0000
     6  C6        -0.1009      1.8648     -0.6254  C       1  LIG       0.0000
     7  N7         0.1546      2.9760     -0.5676  N       1  LIG       0.0000
     8  C8         1.5835     -0.6202     -0.4429  C       1  LIG       0.0000
     9  C9         2.6293     -0.8390     -1.0244  C       1  LIG       0.0000
    10  H10        1.7708     -1.2393      1.3536  H       1  LIG       0.0000
    11  H11       -1.4028      0.8568      1.5258  H       1  LIG       0.0000
    12  H12       -0.9180     -0.8331      1.8173  H       1  LIG       0.0000
    13  H13       -2.2005     -0.3493     -1.1236  H       1  LIG       0.0000
    14  H14       -2.7278      0.3269      0.4038  H       1  LIG       0.0000
    15  H15       -0.2711     -0.0229     -1.7090  H       1  LIG       0.0000
    16  H16        3.5333     -1.0429     -1.5157  H       1  LIG       0.0000
@<TRIPOS>BOND
    1     9    16  1
    2     8     9  3
    3     6     7  3
    4     2     8  1
    5     1    10  1
    6     5     6  1
    7     5    15  1
    8     2     5  1
    9     4     5  1
   10     1     2  1
   11     2     3  1
   12     3    11  1
   13     3     4  1
   14     3    12  1
   15     4    14  1
   16     4    13  1
