@<TRIPOS>MOLECULE
generated_molecule
15 16 0 0 0
SMALL
NO_CHARGES

@<TRIPOS>ATOM
     1  O1        -0.3855     -1.2149      2.5399  O       1  LIG       0.0000
     2  C2        -0.2791     -1.0196      1.3309  C       1  LIG       0.0000
     3  C3        -1.1424     -1.1723      0.1267  C       1  LIG       0.0000
     4  C4        -0.4509      0.1424     -0.4042  C       1  LIG       0.0000
     5  C5        -0.2317      1.4851      0.1640  C       1  LIG       0.0000
     6  C6         0.9963      1.5504     -0.3427  C       1  LIG       0.0000
     7  C7         0.9529      0.2095     -0.9873  C       1  LIG       0.0000
     8  O8         1.0790     -0.2255     -2.0904  O       1  LIG       0.0000
     9  C9         0.7412     -0.5896      0.2801  C       1  LIG       0.0000
    10  H10       -2.1426     -0.8845     -0.1698  H       1  LIG       0.0000
    11  H11       -1.0164     -2.2545      0.0163  H       1  LIG       0.0000
    12  H12       -0.7168      0.4393     -1.4060  H       1  LIG       0.0000
    13  H13       -0.8509      2.2396      0.7056  H       1  LIG       0.0000
    14  H14        1.7422      2.3353     -0.3130  H       1  LIG       0.0000
    15  H15        1.7048     -1.0408      0.5498  H       1  LIG       0.0000
@<TRIPOS>BOND
    1     9    15  1
    2     1     2  2
    3     3    10  1
    4     2     9  1
    5     2     3  1
    6     4     9  1
    7     7     9  1
    8     4    12  1
    9     3     4  1
   10     3    11  1
   11     4     5  1
   12     7     8  2
   13     6     7  1
   14     5     6  2
   15     5    13  1
   16     6    14  1
