@<TRIPOS>MOLECULE
generated_molecule
17 16 0 0 0
SMALL
NO_CHARGES

@<TRIPOS>ATOM
     1  C1         0.8687     -1.1431     -0.3314  C       1  LIG       0.0000
     2  N2        -0.4555     -0.7409     -0.7342  N       1  LIG       0.0000
     3  C3        -0.9461      0.4517     -0.9630  C       1  LIG       0.0000
     4  O4        -1.6388      1.0894     -0.0569  O       1  LIG       0.0000
     5  C5        -1.4371      0.0826      0.8402  C       1  LIG       0.0000
     6  C6        -0.0783     -0.1365      0.1387  C       1  LIG       0.0000
     7  C7         0.9673      0.9578      0.3362  C       1  LIG       0.0000
     8  O8         0.0661     -1.1176     -0.5217  O       1  LIG       0.0000
     9  H9         0.4505     -2.0854     -0.3456  H       1  LIG       0.0000
    10  H10        1.4269     -0.8033      0.5294  H       1  LIG       0.0000
    11  H11        1.7443     -0.8491     -0.8648  H       1  LIG       0.0000
    12  H12       -0.9833      1.0178     -1.8132  H       1  LIG       0.0000
    13  H13       -1.1457     -0.2678      1.8619  H       1  LIG       0.0000
    14  H14       -2.5142     -0.0891      0.7981  H       1  LIG       0.0000
    15  H15        0.6802      1.7328      1.0567  H       1  LIG       0.0000
    16  H16        1.8715      0.4727      0.6952  H       1  LIG       0.0000
    17  H17        1.1234      1.4281     -0.6258  H       1  LIG       0.0000
@<TRIPOS>BOND
    1     7    15  1
    2     5    13  1
    3     5    14  1
    4     7    16  1
    5     7    17  1
    6     6     7  1
    7     5     6  1
    8     4     5  1
    9     6     8  2
   10     3    12  1
   11     3     4  1
   12     2     3  1
   13     1    10  1
   14     1     2  1
   15     1     9  1
   16     1    11  1
