@<TRIPOS>MOLECULE
generated_molecule
22 23 0 0 0
SMALL
NO_CHARGES

@<TRIPOS>ATOM
     1  C1         0.3514      0.7169     -1.6360  C       1  LIG       0.0000
     2  C2        -0.0314     -0.3584     -0.6234  C       1  LIG       0.0000
     3  C3        -0.5037      0.7481      0.4448  C       1  LIG       0.0000
     4  O4        -0.0420      1.6444     -0.4971  O       1  LIG       0.0000
     5  C5        -1.0697     -0.1249      1.4913  C       1  LIG       0.0000
     6  C6         0.1386     -0.4932      0.6854  C       1  LIG       0.0000
     7  C7         1.0953      0.4127     -0.0799  C       1  LIG       0.0000
     8  C8        -0.3346     -1.8855      1.0730  C       1  LIG       0.0000
     9  N9         0.5720     -1.6092     -0.0517  N       1  LIG       0.0000
    10  H10        0.4856      1.6957     -1.1735  H       1  LIG       0.0000
    11  H11        1.2878      0.4433     -2.1303  H       1  LIG       0.0000
    12  H12       -0.4277      0.7950     -2.3939  H       1  LIG       0.0000
    13  H13       -0.3651     -1.2876     -1.0074  H       1  LIG       0.0000
    14  H14       -0.8785      1.2226      1.3396  H       1  LIG       0.0000
    15  H15        0.0368      1.1944     -1.2990  H       1  LIG       0.0000
    16  H16       -1.9917     -0.7350      1.4234  H       1  LIG       0.0000
    17  H17       -1.0634      0.2056      2.5535  H       1  LIG       0.0000
    18  H18        0.5651      1.2964     -0.4071  H       1  LIG       0.0000
    19  H19        1.9369      0.7139      0.5460  H       1  LIG       0.0000
    20  H20        1.5075     -0.0797     -0.9685  H       1  LIG       0.0000
    21  H21       -0.4418     -1.7931      2.1426  H       1  LIG       0.0000
    22  H22       -0.8274     -2.7226      0.5685  H       1  LIG       0.0000
@<TRIPOS>BOND
    1     4    15  1
    2     3    14  1
    3     3     4  1
    4     3     5  1
    5     2     3  1
    6     5    17  1
    7     5    16  1
    8     1    11  1
    9     5     6  1
   10     1    10  1
   11     2    13  1
   12     1     2  1
   13     2     9  1
   14     1    12  1
   15     8    22  1
   16     6     8  1
   17     6     9  1
   18     6     7  1
   19     8     9  1
   20     8    21  1
   21     7    18  1
   22     7    20  1
   23     7    19  1
