@<TRIPOS>MOLECULE
generated_molecule
17 17 0 0 0
SMALL
NO_CHARGES

@<TRIPOS>ATOM
     1  O1         1.2967      2.2756     -0.4388  O       1  LIG       0.0000
     2  C2         0.8119      2.4371      0.6233  C       1  LIG       0.0000
     3  C3        -0.6717      2.6376      0.7706  C       1  LIG       0.0000
     4  C4        -0.5540      1.2537      0.4689  C       1  LIG       0.0000
     5  C5        -0.3659      0.1810      0.1951  C       1  LIG       0.0000
     6  C6         0.0780     -1.0661     -0.0765  C       1  LIG       0.0000
     7  C7         0.8592     -2.3926     -0.3687  C       1  LIG       0.0000
     8  O8        -0.1599     -3.0561     -0.9943  O       1  LIG       0.0000
     9  C9        -0.9101     -1.9026     -1.0578  C       1  LIG       0.0000
    10  H10        1.2813      2.4190      1.6215  H       1  LIG       0.0000
    11  H11       -0.6475      3.5090      1.4853  H       1  LIG       0.0000
    12  H12       -1.6882      2.7455      0.4597  H       1  LIG       0.0000
    13  H13        0.6890     -0.5030      0.5650  H       1  LIG       0.0000
    14  H14        1.6085     -2.3793     -1.1184  H       1  LIG       0.0000
    15  H15        1.2216     -2.6107      0.6157  H       1  LIG       0.0000
    16  H16       -1.9226     -2.1326     -0.7232  H       1  LIG       0.0000
    17  H17       -0.9264     -1.4155     -2.0275  H       1  LIG       0.0000
@<TRIPOS>BOND
    1     9    17  1
    2     6    13  1
    3     8     9  1
    4     6     9  1
    5     9    16  1
    6     7     8  1
    7     7    14  1
    8     6     7  1
    9     5     6  1
   10     7    15  1
   11     4     5  3
   12     2    10  1
   13     3     4  1
   14     1     2  2
   15     2     3  1
   16     3    12  1
   17     3    11  1
