@<TRIPOS>MOLECULE
generated_molecule
16 16 0 0 0
SMALL
NO_CHARGES

@<TRIPOS>ATOM
     1  C1         0.7384      0.9566     -2.3445  C       1  LIG       0.0000
     2  N2         0.0732      0.2287     -1.2652  N       1  LIG       0.0000
     3  C3        -0.8459     -0.7682     -1.3672  C       1  LIG       0.0000
     4  N4        -1.1217     -1.3060     -0.1899  N       1  LIG       0.0000
     5  C5        -0.3313     -0.6083      0.6548  C       1  LIG       0.0000
     6  C6         0.3747      0.3991      0.0296  C       1  LIG       0.0000
     7  C7        -0.2434     -1.0192      2.0620  C       1  LIG       0.0000
     8  N8        -0.3669     -0.0664      3.0191  N       1  LIG       0.0000
     9  O9        -0.0570     -2.1832      2.3852  O       1  LIG       0.0000
    10  H10        0.7273      0.3698     -3.2600  H       1  LIG       0.0000
    11  H11        0.2423      1.9116     -2.5143  H       1  LIG       0.0000
    12  H12        1.7720      1.1616     -2.0773  H       1  LIG       0.0000
    13  H13       -1.3020     -1.0836     -2.2814  H       1  LIG       0.0000
    14  H14        0.9507      1.2142      0.4389  H       1  LIG       0.0000
    15  H15        0.4905      0.3321      3.3143  H       1  LIG       0.0000
    16  H16       -1.1007      0.4612      3.3962  H       1  LIG       0.0000
@<TRIPOS>BOND
    1     3    13  1
    2     1    11  1
    3     3     4  ar
    4     2     3  ar
    5     4     5  ar
    6     8    15  1
    7     1     2  1
    8     1    10  1
    9     1    12  1
   10     2     6  ar
   11     5     6  ar
   12     5     7  1
   13     8    16  1
   14     7     8  1
   15     6    14  1
   16     7     9  2
