@<TRIPOS>MOLECULE
generated_molecule
15 15 0 0 0
SMALL
NO_CHARGES

@<TRIPOS>ATOM
     1  N1         2.0908     -1.8055      1.0332  N       1  LIG       0.0000
     2  C2         1.4410     -0.7818      0.4383  C       1  LIG       0.0000
     3  N3         1.8873      0.5064      0.2894  N       1  LIG       0.0000
     4  N4         0.8599      1.0714     -0.3544  N       1  LIG       0.0000
     5  C5        -0.0978      0.0865     -0.4208  C       1  LIG       0.0000
     6  C6        -1.5133      0.1263     -0.7462  C       1  LIG       0.0000
     7  C7        -2.1087      1.3177     -0.0558  C       1  LIG       0.0000
     8  O8        -1.4302      2.2630      0.4080  O       1  LIG       0.0000
     9  N9         0.2716     -1.1047     -0.0275  N       1  LIG       0.0000
    10  H10        2.3049     -1.7642      1.9939  H       1  LIG       0.0000
    11  H11        2.2593     -2.5180      0.3560  H       1  LIG       0.0000
    12  H12        0.8797      2.0653     -0.7669  H       1  LIG       0.0000
    13  H13       -1.6591      0.0568     -1.8345  H       1  LIG       0.0000
    14  H14       -2.0326     -0.7734     -0.3572  H       1  LIG       0.0000
    15  H15       -3.1528      1.2544      0.0445  H       1  LIG       0.0000
@<TRIPOS>BOND
    1     7     8  2
    2     7    15  1
    3     6     7  1
    4     4    12  1
    5     3     4  ar
    6     2     3  ar
    7     4     5  ar
    8     1     2  1
    9     1    11  1
   10     1    10  1
   11     2     9  ar
   12     5     6  1
   13     5     9  ar
   14     6    14  1
   15     6    13  1
