@<TRIPOS>MOLECULE
generated_molecule
17 17 0 0 0
SMALL
NO_CHARGES

@<TRIPOS>ATOM
     1  C1         0.0784      1.6673     -1.0775  C       1  LIG       0.0000
     2  N2        -1.1127      0.9584     -1.4002  N       1  LIG       0.0000
     3  C3        -1.6412      0.1477     -0.3170  C       1  LIG       0.0000
     4  C4        -0.5224     -0.6150      0.2967  C       1  LIG       0.0000
     5  N5        -0.3022     -0.5848      1.6149  N       1  LIG       0.0000
     6  C6         0.9160     -1.0241      1.9893  C       1  LIG       0.0000
     7  C7         1.8552     -1.4632      1.0127  C       1  LIG       0.0000
     8  N8         1.4480     -1.6340     -0.2510  N       1  LIG       0.0000
     9  N9         0.2108     -1.2492     -0.6234  N       1  LIG       0.0000
    10  H10        0.1218      1.8799     -0.0082  H       1  LIG       0.0000
    11  H11        0.0399      2.5745     -1.6702  H       1  LIG       0.0000
    12  H12        0.9642      1.0806     -1.2898  H       1  LIG       0.0000
    13  H13       -1.5491      0.7319     -2.2388  H       1  LIG       0.0000
    14  H14       -2.4447     -0.4808     -0.7778  H       1  LIG       0.0000
    15  H15       -2.1686      0.6787      0.4846  H       1  LIG       0.0000
    16  H16        1.1811     -1.1018      3.0420  H       1  LIG       0.0000
    17  H17        2.9253     -1.5661      1.2139  H       1  LIG       0.0000
@<TRIPOS>BOND
    1     6    16  1
    2     1    10  1
    3     1    11  1
    4     5     6  ar
    5     6     7  ar
    6     7    17  1
    7     1    12  1
    8     1     2  1
    9     4     5  ar
   10     7     8  ar
   11     2    13  1
   12     2     3  1
   13     4     9  ar
   14     3     4  1
   15     8     9  ar
   16     3    15  1
   17     3    14  1
