@<TRIPOS>MOLECULE
generated_molecule
20 20 0 0 0
SMALL
NO_CHARGES

@<TRIPOS>ATOM
     1  C1        -0.3886     -0.1916      2.3283  C       1  LIG       0.0000
     2  C2         0.1536     -1.0837      1.1587  C       1  LIG       0.0000
     3  C3        -0.1085     -0.4710     -0.2388  C       1  LIG       0.0000
     4  N4         0.7026     -1.1810     -1.2094  N       1  LIG       0.0000
     5  C5         0.5861     -0.0143     -2.1308  C       1  LIG       0.0000
     6  C6         0.5036      0.8167     -0.8519  C       1  LIG       0.0000
     7  N7        -0.2285      1.8801     -0.2404  N       1  LIG       0.0000
     8  C8        -1.5219     -0.3605     -0.6355  C       1  LIG       0.0000
     9  N9        -2.6366     -0.2770     -0.9490  N       1  LIG       0.0000
    10  H10        0.4049      0.1524      3.0186  H       1  LIG       0.0000
    11  H11       -0.8048      0.6810      1.8472  H       1  LIG       0.0000
    12  H12       -1.1226     -0.6921      2.9309  H       1  LIG       0.0000
    13  H13        1.2324     -1.2478      1.4360  H       1  LIG       0.0000
    14  H14       -0.2509     -2.0862      1.1360  H       1  LIG       0.0000
    15  H15        1.5620     -1.5775     -1.3310  H       1  LIG       0.0000
    16  H16        1.4723      0.2108     -2.7652  H       1  LIG       0.0000
    17  H17       -0.2770     -0.1050     -2.7880  H       1  LIG       0.0000
    18  H18        1.4944      1.2686     -0.9689  H       1  LIG       0.0000
    19  H19       -1.1275      1.6733      0.1438  H       1  LIG       0.0000
    20  H20        0.3550      2.6048      0.1096  H       1  LIG       0.0000
@<TRIPOS>BOND
    1     8     9  3
    2     3     8  1
    3     5    16  1
    4     6    18  1
    5     5     6  1
    6     3     6  1
    7     6     7  1
    8     4     5  1
    9     5    17  1
   10     3     4  1
   11     2     3  1
   12     4    15  1
   13     1    11  1
   14     2    14  1
   15     7    19  1
   16     1     2  1
   17     2    13  1
   18     7    20  1
   19     1    10  1
   20     1    12  1
