@<TRIPOS>MOLECULE
generated_molecule
17 17 0 0 0
SMALL
NO_CHARGES

@<TRIPOS>ATOM
     1  C1         0.3854     -1.5202     -0.9302  C       1  LIG       0.0000
     2  C2        -0.6632     -0.9720      0.0493  C       1  LIG       0.0000
     3  N3        -1.0507     -0.5791      1.3751  N       1  LIG       0.0000
     4  C4        -0.3023      0.6080      1.2041  C       1  LIG       0.0000
     5  C5         0.0795      2.0684      1.1477  C       1  LIG       0.0000
     6  N6         0.3484      3.1536      1.2074  N       1  LIG       0.0000
     7  C7        -0.1713      0.4325     -0.3453  C       1  LIG       0.0000
     8  N8         0.9621      0.9004     -0.9740  N       1  LIG       0.0000
     9  H9         0.5850     -2.5428     -0.6434  H       1  LIG       0.0000
    10  H10        1.3483     -1.0028     -0.9205  H       1  LIG       0.0000
    11  H11       -0.0392     -1.4265     -1.9165  H       1  LIG       0.0000
    12  H12       -1.4996     -1.6350      0.1498  H       1  LIG       0.0000
    13  H13       -2.0792     -0.5495      1.5845  H       1  LIG       0.0000
    14  H14       -0.2122      0.2320      2.1802  H       1  LIG       0.0000
    15  H15       -0.8182      0.6492     -1.1642  H       1  LIG       0.0000
    16  H16        1.8163      0.3572     -1.1904  H       1  LIG       0.0000
    17  H17        1.3112      1.8268     -0.8134  H       1  LIG       0.0000
@<TRIPOS>BOND
    1     3    13  1
    2     1    10  1
    3     2     3  1
    4     3     4  1
    5     1     9  1
    6     1     2  1
    7     1    11  1
    8     2    12  1
    9     2     7  1
   10     4    14  1
   11     4     5  1
   12     4     7  1
   13     5     6  3
   14     7     8  1
   15     7    15  1
   16     8    17  1
   17     8    16  1
