@<TRIPOS>MOLECULE
generated_molecule
15 15 0 0 0
SMALL
NO_CHARGES

@<TRIPOS>ATOM
     1  C1         0.4903     -1.9254     -0.8882  C       1  LIG       0.0000
     2  C2         0.0753     -0.5969     -0.1999  C       1  LIG       0.0000
     3  C3        -0.8335      0.4860     -0.2865  C       1  LIG       0.0000
     4  N4        -1.9974      0.7863     -1.0662  N       1  LIG       0.0000
     5  N5        -0.5372      1.4198      0.6104  N       1  LIG       0.0000
     6  C6         0.4869      0.9002      1.2665  C       1  LIG       0.0000
     7  O7         1.0865      1.5524      2.1953  O       1  LIG       0.0000
     8  N8         0.8803     -0.3225      0.8514  N       1  LIG       0.0000
     9  H9         0.1449     -1.9411     -1.9139  H       1  LIG       0.0000
    10  H10        0.1148     -2.7985     -0.3375  H       1  LIG       0.0000
    11  H11        1.5766     -2.0449     -0.8749  H       1  LIG       0.0000
    12  H12       -2.5755      1.5617     -0.6716  H       1  LIG       0.0000
    13  H13       -1.8186      1.5160     -1.7922  H       1  LIG       0.0000
    14  H14        1.3958      2.3419      1.8548  H       1  LIG       0.0000
    15  H15        1.5108     -0.9350      1.2524  H       1  LIG       0.0000
@<TRIPOS>BOND
    1     4    13  1
    2     4    12  1
    3     3     4  1
    4     3     5  ar
    5     2     3  ar
    6     1    10  1
    7     5     6  ar
    8     1     2  1
    9     2     8  ar
   10     1    11  1
   11     1     9  1
   12     6     8  ar
   13     6     7  1
   14     7    14  1
   15     8    15  1
