@<TRIPOS>MOLECULE
generated_molecule
16 17 0 0 0
SMALL
NO_CHARGES

@<TRIPOS>ATOM
     1  O1         0.4112      0.2338     -3.0783  O       1  LIG       0.0000
     2  C2         1.0005     -0.0484     -2.0639  C       1  LIG       0.0000
     3  C3         0.5522      0.4833     -0.7555  C       1  LIG       0.0000
     4  C4         1.1020     -0.0437      0.5467  C       1  LIG       0.0000
     5  C5        -0.2145     -0.6419     -0.1555  C       1  LIG       0.0000
     6  C6        -1.1765     -0.9962      0.9525  C       1  LIG       0.0000
     7  O7        -1.1774      0.3084      1.4035  O       1  LIG       0.0000
     8  C8        -0.6931      1.4864      0.8745  C       1  LIG       0.0000
     9  N9        -0.0183      1.6470     -0.2457  N       1  LIG       0.0000
    10  H10        1.9045     -0.6798     -2.0396  H       1  LIG       0.0000
    11  H11        2.0155      0.4720      0.3718  H       1  LIG       0.0000
    12  H12        0.9305     -0.4420      1.5593  H       1  LIG       0.0000
    13  H13       -0.7021     -0.9520     -1.0856  H       1  LIG       0.0000
    14  H14       -2.0767     -1.4479      0.5220  H       1  LIG       0.0000
    15  H15       -0.8977     -1.7228      1.7178  H       1  LIG       0.0000
    16  H16       -0.9601      2.3438      1.4760  H       1  LIG       0.0000
@<TRIPOS>BOND
    1     6    14  1
    2     6    15  1
    3     5    13  1
    4     5     6  1
    5     6     7  1
    6     3     5  1
    7     4     5  1
    8     7     8  1
    9     1     2  2
   10     2     3  1
   11     3     4  1
   12     3     9  1
   13     8    16  1
   14     8     9  2
   15     2    10  1
   16     4    11  1
   17     4    12  1
