@<TRIPOS>MOLECULE
generated_molecule
15 16 0 0 0
SMALL
NO_CHARGES

@<TRIPOS>ATOM
     1  O1         1.9770     -0.7112      0.5907  O       1  LIG       0.0000
     2  C2         0.7592     -0.3326      0.9451  C       1  LIG       0.0000
     3  C3         0.4569      0.8964      0.1202  C       1  LIG       0.0000
     4  C4        -0.1364      0.4462     -1.2154  C       1  LIG       0.0000
     5  C5        -1.4149     -0.2507     -0.7426  C       1  LIG       0.0000
     6  C6        -0.7449     -0.3234      0.6589  C       1  LIG       0.0000
     7  O7        -0.8368      1.0617      0.6409  O       1  LIG       0.0000
     8  H8         2.9162     -0.9850      0.8616  H       1  LIG       0.0000
     9  H9         0.9595     -0.6587      1.9696  H       1  LIG       0.0000
    10  H10        1.2449      1.6157      0.3694  H       1  LIG       0.0000
    11  H11       -0.5025      1.2479     -1.8650  H       1  LIG       0.0000
    12  H12        0.6117     -0.1917     -1.6692  H       1  LIG       0.0000
    13  H13       -2.2701     -0.7588     -0.2756  H       1  LIG       0.0000
    14  H14       -1.7741     -0.0971     -1.7909  H       1  LIG       0.0000
    15  H15       -1.2457     -0.9587      1.4022  H       1  LIG       0.0000
@<TRIPOS>BOND
    1     6    15  1
    2     2     9  1
    3     1     8  1
    4     1     2  1
    5     2     6  1
    6     2     3  1
    7     6     7  1
    8     5     6  1
    9     3     7  1
   10     5    14  1
   11     5    13  1
   12     4     5  1
   13     3    10  1
   14     3     4  1
   15     4    12  1
   16     4    11  1
