@<TRIPOS>MOLECULE
generated_molecule
21 24 0 0 0
SMALL
NO_CHARGES

@<TRIPOS>ATOM
     1  C1         0.7540      2.9681      0.1704  C       1  LIG       0.0000
     2  C2         0.3336      1.5645      0.6198  C       1  LIG       0.0000
     3  C3        -1.0407      1.1522      0.1559  C       1  LIG       0.0000
     4  C4         0.0954      0.2139      0.1009  C       1  LIG       0.0000
     5  C5         0.2027     -0.7881     -1.0626  C       1  LIG       0.0000
     6  C6        -0.8104     -1.1983      0.0215  C       1  LIG       0.0000
     7  C7        -0.7142     -2.7279     -0.1124  C       1  LIG       0.0000
     8  C8         0.6406     -2.2008     -0.6068  C       1  LIG       0.0000
     9  C9         0.6564     -1.1594      0.5068  C       1  LIG       0.0000
    10  H10       -0.0724      3.6736      0.1874  H       1  LIG       0.0000
    11  H11        1.5314      3.2976      0.8613  H       1  LIG       0.0000
    12  H12        1.1513      3.0075     -0.8495  H       1  LIG       0.0000
    13  H13        0.8805      1.3713      1.5285  H       1  LIG       0.0000
    14  H14       -1.7900      1.0174      0.9296  H       1  LIG       0.0000
    15  H15       -1.4363      1.4625     -0.7988  H       1  LIG       0.0000
    16  H16        0.3722     -0.4189     -2.0631  H       1  LIG       0.0000
    17  H17       -1.6519     -0.5597      0.2535  H       1  LIG       0.0000
    18  H18       -1.5487     -2.7793      0.5917  H       1  LIG       0.0000
    19  H19       -0.5444     -3.6837     -0.6207  H       1  LIG       0.0000
    20  H20        1.5533     -2.7155     -0.9777  H       1  LIG       0.0000
    21  H21        1.4377     -1.4971      1.1641  H       1  LIG       0.0000
@<TRIPOS>BOND
    1     1    11  1
    2     3    14  1
    3     2    13  1
    4     3    15  1
    5     2     3  1
    6     3     4  1
    7     1     2  1
    8     1    10  1
    9     1    12  1
   10     2     4  1
   11     4     9  1
   12     4     5  1
   13     9    21  1
   14     8     9  1
   15     6     9  1
   16     5    16  1
   17     5     8  1
   18     5     6  1
   19     8    20  1
   20     7     8  1
   21     6    17  1
   22     6     7  1
   23     7    19  1
   24     7    18  1
