@<TRIPOS>MOLECULE
generated_molecule
25 26 0 0 0
SMALL
NO_CHARGES

@<TRIPOS>ATOM
     1  C1        -1.9032      0.0683      1.6849  C       1  LIG       0.0000
     2  C2        -1.0531     -0.6781      0.5187  C       1  LIG       0.0000
     3  C3        -0.1495      0.0080     -0.5208  C       1  LIG       0.0000
     4  C4        -0.0374      1.2319      0.0607  C       1  LIG       0.0000
     5  C5         0.9465      2.0930      0.5407  C       1  LIG       0.0000
     6  C6         1.2375      1.0237     -0.3630  C       1  LIG       0.0000
     7  C7         0.5595     -0.1981     -0.6213  C       1  LIG       0.0000
     8  C8        -0.5115     -1.2401     -0.7835  C       1  LIG       0.0000
     9  C9         1.8383     -0.9634     -1.1214  C       1  LIG       0.0000
    10  H10       -1.9045      1.1839      1.5915  H       1  LIG       0.0000
    11  H11       -1.4788     -0.0957      2.6635  H       1  LIG       0.0000
    12  H12       -2.9212     -0.2359      1.6268  H       1  LIG       0.0000
    13  H13       -0.3834     -1.3357      1.0201  H       1  LIG       0.0000
    14  H14       -1.8363     -1.1693     -0.0321  H       1  LIG       0.0000
    15  H15       -0.2386      0.0652     -1.5904  H       1  LIG       0.0000
    16  H16       -0.8769      1.8677      0.3631  H       1  LIG       0.0000
    17  H17        1.9829      2.5390      0.8196  H       1  LIG       0.0000
    18  H18        0.3196      2.8779      1.1197  H       1  LIG       0.0000
    19  H19        2.2868      1.1123     -0.7014  H       1  LIG       0.0000
    20  H20       -0.6883     -1.4749     -1.8473  H       1  LIG       0.0000
    21  H21       -0.1900     -2.1704     -0.3075  H       1  LIG       0.0000
    22  H22       -1.4753     -0.9494     -0.3483  H       1  LIG       0.0000
    23  H23        1.8104     -1.9653     -0.7016  H       1  LIG       0.0000
    24  H24        2.8103     -0.5183     -0.8491  H       1  LIG       0.0000
    25  H25        1.8561     -1.0761     -2.2220  H       1  LIG       0.0000
@<TRIPOS>BOND
    1     9    24  1
    2     9    25  1
    3     4    16  1
    4     5    17  1
    5     9    23  1
    6     7     9  1
    7     4     5  1
    8     4     7  1
    9     3     4  1
   10     5    18  1
   11     5     6  1
   12     8    21  1
   13     7     8  1
   14     6     7  1
   15     1    11  1
   16     8    22  1
   17     8    20  1
   18     3     6  1
   19     6    19  1
   20     2     3  1
   21     3    15  1
   22     2    13  1
   23     1     2  1
   24     1    10  1
   25     1    12  1
   26     2    14  1
