@<TRIPOS>MOLECULE
generated_molecule
12 12 0 0 0
SMALL
NO_CHARGES

@<TRIPOS>ATOM
     1  N1         1.9886      0.6029      0.1210  N       1  LIG       0.0000
     2  C2         0.8306     -0.1559     -0.0173  C       1  LIG       0.0000
     3  C3        -0.5233      0.0488      0.0239  C       1  LIG       0.0000
     4  O4        -1.1158     -1.1177     -0.2791  O       1  LIG       0.0000
     5  C5        -0.1777     -2.0779     -0.4799  C       1  LIG       0.0000
     6  O6        -0.3654     -3.2243     -0.7795  O       1  LIG       0.0000
     7  O7         1.0343     -1.4663     -0.2967  O       1  LIG       0.0000
     8  C8        -1.4350      1.1203      0.2930  C       1  LIG       0.0000
     9  C9        -2.2308      1.9861      0.5129  C       1  LIG       0.0000
    10  H10        2.3620      1.0169     -0.6970  H       1  LIG       0.0000
    11  H11        2.5929      0.5369      0.8848  H       1  LIG       0.0000
    12  H12       -2.9604      2.7301      0.7140  H       1  LIG       0.0000
@<TRIPOS>BOND
    1     1     2  1
    2     1    10  1
    3     1    11  1
    4     2     3  ar
    5     2     7  ar
    6     3     4  ar
    7     3     8  1
    8     4     5  ar
    9     5     6  2
   10     5     7  ar
   11     8     9  3
   12     9    12  1
