@<TRIPOS>MOLECULE
generated_molecule
15 15 0 0 0
SMALL
NO_CHARGES

@<TRIPOS>ATOM
     1  C1         1.9725      0.5128      0.0010  C       1  LIG       0.0000
     2  N2         0.5520      0.3470     -0.3340  N       1  LIG       0.0000
     3  C3         0.7235      1.1215     -1.4865  C       1  LIG       0.0000
     4  O4        -0.0667      1.9565     -1.9574  O       1  LIG       0.0000
     5  C5        -0.6632     -0.2655      0.1140  C       1  LIG       0.0000
     6  C6        -0.9861     -1.2541      1.0192  C       1  LIG       0.0000
     7  N7        -2.3722     -1.2505      1.1525  N       1  LIG       0.0000
     8  N8        -2.8836     -0.3745      0.2721  N       1  LIG       0.0000
     9  N9        -1.8144      0.1978     -0.3575  N       1  LIG       0.0000
    10  H10        2.5369     -0.4151     -0.0617  H       1  LIG       0.0000
    11  H11        2.1864      0.9503      0.9879  H       1  LIG       0.0000
    12  H12        2.4819      1.2307     -0.7236  H       1  LIG       0.0000
    13  H13        1.7225      0.9863     -2.0303  H       1  LIG       0.0000
    14  H14       -0.4203     -2.0265      1.5272  H       1  LIG       0.0000
    15  H15       -2.9692     -1.7167      1.8770  H       1  LIG       0.0000
@<TRIPOS>BOND
    1     7    15  1
    2     7     8  ar
    3     6     7  ar
    4     6    14  1
    5     8     9  ar
    6     5     6  ar
    7     5     9  ar
    8     2     5  1
    9     1    11  1
   10     1    10  1
   11     1     2  1
   12     2     3  1
   13     1    12  1
   14     3    13  1
   15     3     4  2
