@<TRIPOS>MOLECULE
generated_molecule
18 21 0 0 0
SMALL
NO_CHARGES

@<TRIPOS>ATOM
     1  C1         0.4151     -1.3413     -1.0046  C       1  LIG       0.0000
     2  C2        -0.6955     -0.2885     -1.3215  C       1  LIG       0.0000
     3  C3        -0.7502      1.1097     -0.5893  C       1  LIG       0.0000
     4  C4         0.5469      0.8944      0.1624  C       1  LIG       0.0000
     5  C5        -0.7961      0.3147      0.8624  C       1  LIG       0.0000
     6  C6         0.0857      0.8448      1.9635  C       1  LIG       0.0000
     7  N7        -0.7761      1.6950      0.9077  N       1  LIG       0.0000
     8  C8         1.1098      0.0130      1.1985  C       1  LIG       0.0000
     9  C9         1.2871     -1.1293      0.3514  C       1  LIG       0.0000
    10  H10       -0.0849     -1.5519     -1.8765  H       1  LIG       0.0000
    11  H11        1.2346     -2.0609     -0.7601  H       1  LIG       0.0000
    12  H12       -1.6782     -0.7166     -1.1167  H       1  LIG       0.0000
    13  H13       -0.6158     -0.0729     -2.3976  H       1  LIG       0.0000
    14  H14       -1.2399      1.9175     -1.1083  H       1  LIG       0.0000
    15  H15        1.4771      1.3679     -0.1852  H       1  LIG       0.0000
    16  H16       -1.6656     -0.2535      1.0880  H       1  LIG       0.0000
    17  H17        0.1126      0.9417      3.0176  H       1  LIG       0.0000
    18  H18        2.0332     -1.6838      0.8083  H       1  LIG       0.0000
@<TRIPOS>BOND
    1     5    16  1
    2     4    15  1
    3     4     5  1
    4     5     7  1
    5     5     6  1
    6     3     4  1
    7     4     8  1
    8     3    14  1
    9     3     7  1
   10     2     3  1
   11     1    11  1
   12     6     8  1
   13     8     9  1
   14     6     7  1
   15     6    17  1
   16     2    12  1
   17     1     2  1
   18     2    13  1
   19     1     9  1
   20     1    10  1
   21     9    18  1
