@<TRIPOS>MOLECULE
generated_molecule
16 16 0 0 0
SMALL
NO_CHARGES

@<TRIPOS>ATOM
     1  N1         1.6564     -1.4279     -0.6369  N       1  LIG       0.0000
     2  H2        -3.0023      1.7566     -0.4568  H       1  LIG       0.0000
     3  H3         2.6114     -1.4919     -0.9292  H       1  LIG       0.0000
     4  H4         0.9613     -1.4103     -1.3543  H       1  LIG       0.0000
     5  C5         1.2863     -1.2420      0.7194  C       1  LIG       0.0000
     6  C6         0.0980     -0.3400      1.0063  C       1  LIG       0.0000
     7  N7        -1.2211     -0.3033      0.3826  N       1  LIG       0.0000
     8  C8        -0.3087      0.8073      0.0570  C       1  LIG       0.0000
     9  C9        -0.9741      1.5946     -1.0341  C       1  LIG       0.0000
    10  O10       -0.4333      1.9178     -2.0767  O       1  LIG       0.0000
    11  O11       -2.2446      2.0367     -0.8778  O       1  LIG       0.0000
    12  H12        2.0972     -0.7901      1.2768  H       1  LIG       0.0000
    13  H13        1.1249     -2.2832      1.0471  H       1  LIG       0.0000
    14  H14       -0.1244     -0.3387      2.0702  H       1  LIG       0.0000
    15  H15       -2.0747      0.0461      0.6533  H       1  LIG       0.0000
    16  H16        0.5475      1.4683      0.1531  H       1  LIG       0.0000
@<TRIPOS>BOND
    1     1     4  1
    2     7    15  1
    3     1     3  1
    4     5    13  1
    5     1     5  1
    6     6     7  1
    7     7     8  1
    8     5     6  1
    9     5    12  1
   10     6    14  1
   11     6     8  1
   12     2    11  1
   13     8    16  1
   14     8     9  1
   15     9    11  1
   16     9    10  2
