@<TRIPOS>MOLECULE
generated_molecule
16 17 0 0 0
SMALL
NO_CHARGES

@<TRIPOS>ATOM
     1  O1         1.2223     -1.9873      1.8223  O       1  LIG       0.0000
     2  C2         0.7842     -1.1096      1.0946  C       1  LIG       0.0000
     3  C3        -0.6592     -0.9770      0.4952  C       1  LIG       0.0000
     4  C4        -0.6225     -0.1305     -0.8223  C       1  LIG       0.0000
     5  C5        -0.6481      0.4676      0.5394  C       1  LIG       0.0000
     6  C6         0.7894      0.8790      0.0244  C       1  LIG       0.0000
     7  C7         0.4793      0.7394     -1.4632  C       1  LIG       0.0000
     8  O8         1.5534     -0.0676      0.7233  O       1  LIG       0.0000
     9  H9        -1.1723     -1.7803      0.0357  H       1  LIG       0.0000
    10  H10       -1.1451     -0.5907      1.3906  H       1  LIG       0.0000
    11  H11       -1.1994     -0.1860     -1.7498  H       1  LIG       0.0000
    12  H12       -1.7013      0.2794      0.4286  H       1  LIG       0.0000
    13  H13       -0.3713      0.6407      1.5698  H       1  LIG       0.0000
    14  H14        1.2394      1.8783      0.0671  H       1  LIG       0.0000
    15  H15        1.0656      0.1897     -2.2423  H       1  LIG       0.0000
    16  H16        0.3855      1.7549     -1.9132  H       1  LIG       0.0000
@<TRIPOS>BOND
    1     5    13  1
    2     5    12  1
    3     5     6  1
    4     4     5  1
    5     6    14  1
    6     4    11  1
    7     6     8  1
    8     6     7  1
    9     3     4  1
   10     4     7  1
   11     3     9  1
   12     7    15  1
   13     2     8  1
   14     2     3  1
   15     3    10  1
   16     7    16  1
   17     1     2  2
