@<TRIPOS>MOLECULE
generated_molecule
20 19 0 0 0
SMALL
NO_CHARGES

@<TRIPOS>ATOM
     1  C1        -0.7638      1.5448     -0.2262  C       1  LIG       0.0000
     2  C2        -0.0857      0.1765     -0.1077  C       1  LIG       0.0000
     3  C3         0.3230      1.6588      0.1651  C       1  LIG       0.0000
     4  O4        -0.5880      2.4351     -0.5437  O       1  LIG       0.0000
     5  C5        -0.6863     -1.1847      0.3813  C       1  LIG       0.0000
     6  O6         0.0882     -2.0623      1.1038  O       1  LIG       0.0000
     7  C7         0.7385     -0.9854     -0.7457  C       1  LIG       0.0000
     8  N8         1.3548     -1.9411     -0.0106  N       1  LIG       0.0000
     9  O9         0.8164     -1.0288     -1.9437  O       1  LIG       0.0000
    10  H10       -1.7140      1.4502     -0.7307  H       1  LIG       0.0000
    11  H11       -0.9434      2.0005      0.7583  H       1  LIG       0.0000
    12  H12       -0.1472      2.2585     -0.7887  H       1  LIG       0.0000
    13  H13        0.2881      1.9055      1.2481  H       1  LIG       0.0000
    14  H14        1.3356      1.9314     -0.1754  H       1  LIG       0.0000
    15  H15       -1.5024      2.1237     -0.5871  H       1  LIG       0.0000
    16  H16       -0.9697     -1.6711     -0.5201  H       1  LIG       0.0000
    17  H17       -1.4563     -0.9790      1.1013  H       1  LIG       0.0000
    18  H18        0.7185     -2.7994      0.9625  H       1  LIG       0.0000
    19  H19        1.4198     -2.9280     -0.2290  H       1  LIG       0.0000
    20  H20        1.7738     -1.9051      0.8882  H       1  LIG       0.0000
@<TRIPOS>BOND
    1     7     9  2
    2     8    20  1
    3     7     8  1
    4     2     7  1
    5     8    19  1
    6     1    11  1
    7     5    16  1
    8     5    17  1
    9     1     2  1
   10     1    10  1
   11     1    12  1
   12     2     5  1
   13     2     3  1
   14     5     6  1
   15     3    13  1
   16     3     4  1
   17     3    14  1
   18     6    18  1
   19     4    15  1
