@<TRIPOS>MOLECULE
generated_molecule
15 14 0 0 0
SMALL
NO_CHARGES

@<TRIPOS>ATOM
     1  C1        -2.0263      0.0732     -1.3575  C       1  LIG       0.0000
     2  C2        -1.0618      0.5194     -0.2493  C       1  LIG       0.0000
     3  O3        -1.4883      0.8124      0.8603  O       1  LIG       0.0000
     4  N4         0.2688      0.5850     -0.6685  N       1  LIG       0.0000
     5  C5         1.3821     -0.1291     -0.1990  C       1  LIG       0.0000
     6  O6         2.0791     -0.6624     -1.0266  O       1  LIG       0.0000
     7  C7         1.6989     -0.1571      1.3128  C       1  LIG       0.0000
     8  O8         0.6299     -0.5388      2.0781  O       1  LIG       0.0000
     9  H9        -1.5432      0.1995     -2.3181  H       1  LIG       0.0000
    10  H10       -2.9333      0.7005     -1.3053  H       1  LIG       0.0000
    11  H11       -2.2859     -0.9788     -1.2371  H       1  LIG       0.0000
    12  H12        0.2337      0.9759     -1.5801  H       1  LIG       0.0000
    13  H13        1.9122      0.8075      1.7379  H       1  LIG       0.0000
    14  H14        2.5506     -0.8394      1.3867  H       1  LIG       0.0000
    15  H15        0.5836     -1.3677      2.5658  H       1  LIG       0.0000
@<TRIPOS>BOND
    1     1    10  1
    2     7    14  1
    3     5     6  2
    4     2     3  2
    5     7     8  1
    6     8    15  1
    7     4     5  1
    8     5     7  1
    9     2     4  1
   10     1     2  1
   11     1     9  1
   12     4    12  1
   13     1    11  1
   14     7    13  1
