@<TRIPOS>MOLECULE
generated_molecule
21 22 0 0 0
SMALL
NO_CHARGES

@<TRIPOS>ATOM
     1  C1         0.1825      1.0991     -1.6786  C       1  LIG       0.0000
     2  C2         0.1295     -0.1614     -0.8215  C       1  LIG       0.0000
     3  C3         1.2568     -1.2188     -0.9243  C       1  LIG       0.0000
     4  O4         2.4219     -0.7112     -0.4853  O       1  LIG       0.0000
     5  C5        -0.7159     -0.9440      0.1917  C       1  LIG       0.0000
     6  C6        -1.1513     -0.6799      1.6692  C       1  LIG       0.0000
     7  C7        -1.0342      0.8109      1.4384  C       1  LIG       0.0000
     8  O8        -0.2965      1.9644      1.1922  O       1  LIG       0.0000
     9  C9        -1.0176      0.5109     -0.0810  C       1  LIG       0.0000
    10  H10        1.0855      1.6616     -1.4783  H       1  LIG       0.0000
    11  H11        0.1521      0.8085     -2.7131  H       1  LIG       0.0000
    12  H12       -0.6700      1.7907     -1.4878  H       1  LIG       0.0000
    13  H13        1.1268     -1.5007     -1.9153  H       1  LIG       0.0000
    14  H14        1.3074     -2.1598     -0.2642  H       1  LIG       0.0000
    15  H15        3.0552     -1.2551      0.0754  H       1  LIG       0.0000
    16  H16       -0.6833     -1.9811     -0.1754  H       1  LIG       0.0000
    17  H17       -0.4715     -1.0670      2.4555  H       1  LIG       0.0000
    18  H18       -2.1583     -1.0868      1.8933  H       1  LIG       0.0000
    19  H19       -1.5878      0.9905      2.3492  H       1  LIG       0.0000
    20  H20        0.5899      2.0084      1.5741  H       1  LIG       0.0000
    21  H21       -1.5211      1.1208     -0.8142  H       1  LIG       0.0000
@<TRIPOS>BOND
    1     4    15  1
    2     3     4  1
    3     1    11  1
    4     5    16  1
    5     3    13  1
    6     2     3  1
    7     3    14  1
    8     2     5  1
    9     5     6  1
   10     5     9  1
   11     6    18  1
   12     1     2  1
   13     1    10  1
   14     1    12  1
   15     2     9  1
   16     6    17  1
   17     6     7  1
   18     9    21  1
   19     7     9  1
   20     7    19  1
   21     7     8  1
   22     8    20  1
