@<TRIPOS>MOLECULE
generated_molecule
22 24 0 0 0
SMALL
NO_CHARGES

@<TRIPOS>ATOM
     1  C1        -1.6536     -1.6443      0.7544  C       1  LIG       0.0000
     2  C2        -1.3390     -0.1378      0.4451  C       1  LIG       0.0000
     3  N3        -0.3493     -1.0617      0.8867  N       1  LIG       0.0000
     4  C4         0.9740     -1.3678      1.1998  C       1  LIG       0.0000
     5  C5         1.7514     -0.6707      0.1092  C       1  LIG       0.0000
     6  C6         0.6917     -0.2133     -0.9906  C       1  LIG       0.0000
     7  C7        -0.3942      0.7529     -0.4710  C       1  LIG       0.0000
     8  C8        -1.0855      2.1534     -0.5211  C       1  LIG       0.0000
     9  C9         0.3115      2.0300     -1.0389  C       1  LIG       0.0000
    10  H10       -1.6060     -2.2886      1.6605  H       1  LIG       0.0000
    11  H11       -2.2913     -2.0162     -0.0293  H       1  LIG       0.0000
    12  H12       -2.2095      0.3737      0.8546  H       1  LIG       0.0000
    13  H13        1.6374     -2.2774      1.1430  H       1  LIG       0.0000
    14  H14        0.8186     -1.2104      2.2600  H       1  LIG       0.0000
    15  H15        2.5127     -1.4332      0.1127  H       1  LIG       0.0000
    16  H16        2.2920      0.3069      0.1332  H       1  LIG       0.0000
    17  H17        0.0814     -1.0104     -1.3410  H       1  LIG       0.0000
    18  H18        1.3276      0.2144     -1.7503  H       1  LIG       0.0000
    19  H19       -1.8627      2.2775     -1.2687  H       1  LIG       0.0000
    20  H20       -1.1775      2.6744      0.4249  H       1  LIG       0.0000
    21  H21        1.1646      2.3483     -0.4509  H       1  LIG       0.0000
    22  H22        0.4056      2.2001     -2.1227  H       1  LIG       0.0000
@<TRIPOS>BOND
    1     6    17  1
    2     5    16  1
    3     6    18  1
    4     5     6  1
    5     6     7  1
    6     5    15  1
    7     4     5  1
    8     8    19  1
    9     9    22  1
   10     4    14  1
   11     7     8  1
   12     8     9  1
   13     8    20  1
   14     7     9  1
   15     2     7  1
   16     4    13  1
   17     3     4  1
   18     9    21  1
   19     1    11  1
   20     1     2  1
   21     2     3  1
   22     2    12  1
   23     1     3  1
   24     1    10  1
