@<TRIPOS>MOLECULE
generated_molecule
17 17 0 0 0
SMALL
NO_CHARGES

@<TRIPOS>ATOM
     1  C1        -0.8890     -1.1558      0.3168  C       1  LIG       0.0000
     2  O2         0.3814     -0.8055     -0.1659  O       1  LIG       0.0000
     3  C3         1.0133      0.3462     -0.3228  C       1  LIG       0.0000
     4  C4         1.8894      1.6891     -0.1928  C       1  LIG       0.0000
     5  C5         2.3865      0.5910     -1.0791  C       1  LIG       0.0000
     6  C6        -0.2795      0.0423      0.0317  C       1  LIG       0.0000
     7  C7        -1.3988     -0.2677      0.3661  C       1  LIG       0.0000
     8  C8        -2.6843     -0.6090      0.7464  C       1  LIG       0.0000
     9  O9        -3.0757     -0.4673      1.8834  O       1  LIG       0.0000
    10  H10       -0.6111     -2.0607      0.6628  H       1  LIG       0.0000
    11  H11       -1.3387     -0.4783      1.0980  H       1  LIG       0.0000
    12  H12       -1.6551     -1.0772     -0.4509  H       1  LIG       0.0000
    13  H13        1.8150      1.8883      0.8413  H       1  LIG       0.0000
    14  H14        2.1566      2.5524     -0.8089  H       1  LIG       0.0000
    15  H15        2.1676      0.3707     -2.0859  H       1  LIG       0.0000
    16  H16        3.4206      0.4578     -0.7684  H       1  LIG       0.0000
    17  H17       -3.2980     -1.0165     -0.0717  H       1  LIG       0.0000
@<TRIPOS>BOND
    1     8     9  2
    2     8    17  1
    3     7     8  1
    4     6     7  3
    5     3     6  1
    6     5    16  1
    7     4    13  1
    8     3     5  1
    9     3     4  1
   10     2     3  1
   11     4     5  1
   12     5    15  1
   13     4    14  1
   14     1    11  1
   15     1     2  1
   16     1    10  1
   17     1    12  1
