@<TRIPOS>MOLECULE
generated_molecule
21 22 0 0 0
SMALL
NO_CHARGES

@<TRIPOS>ATOM
     1  C1         2.0344      1.6958     -1.0502  C       1  LIG       0.0000
     2  C2         1.0257      0.5310     -1.3668  C       1  LIG       0.0000
     3  C3         0.0038      0.1803     -0.3117  C       1  LIG       0.0000
     4  C4        -0.2678      0.2893      1.2092  C       1  LIG       0.0000
     5  C5        -1.0347     -1.0587      1.1087  C       1  LIG       0.0000
     6  C6        -0.2930     -2.0546      0.1318  C       1  LIG       0.0000
     7  O7         0.3351     -1.1380     -0.7092  O       1  LIG       0.0000
     8  C8        -2.0787      0.0238      0.7199  C       1  LIG       0.0000
     9  O9        -1.2853      0.7798     -0.2001  O       1  LIG       0.0000
    10  H10        1.5734      2.6303     -1.3126  H       1  LIG       0.0000
    11  H11        2.9871      1.5615     -1.5303  H       1  LIG       0.0000
    12  H12        2.2599      1.7420      0.0477  H       1  LIG       0.0000
    13  H13        1.7214     -0.3039     -1.5906  H       1  LIG       0.0000
    14  H14        0.4265      0.7499     -2.2160  H       1  LIG       0.0000
    15  H15        0.7035      0.7066      1.3759  H       1  LIG       0.0000
    16  H16       -0.9928      0.6638      1.9597  H       1  LIG       0.0000
    17  H17       -1.3236     -1.7835      1.8822  H       1  LIG       0.0000
    18  H18        0.3147     -2.7657      0.7172  H       1  LIG       0.0000
    19  H19       -0.7662     -2.6524     -0.6557  H       1  LIG       0.0000
    20  H20       -2.9555     -0.2628      0.1226  H       1  LIG       0.0000
    21  H21       -2.3879      0.4658      1.6682  H       1  LIG       0.0000
@<TRIPOS>BOND
    1     6    18  1
    2     6    19  1
    3     5     6  1
    4     6     7  1
    5     5    17  1
    6     8    21  1
    7     5     8  1
    8     4     5  1
    9     3     7  1
   10     8    20  1
   11     8     9  1
   12     4    16  1
   13     3     4  1
   14     4    15  1
   15     3     9  1
   16     2     3  1
   17     1    11  1
   18     1     2  1
   19     2    14  1
   20     2    13  1
   21     1    10  1
   22     1    12  1
