@<TRIPOS>MOLECULE
generated_molecule
23 24 0 0 0
SMALL
NO_CHARGES

@<TRIPOS>ATOM
     1  C1        -0.5109      0.2438     -0.6095  C       1  LIG       0.0000
     2  C2         0.0325     -1.1039     -0.5911  C       1  LIG       0.0000
     3  C3         1.2582     -1.6778     -0.5399  C       1  LIG       0.0000
     4  C4         0.7820     -0.3975     -1.2655  C       1  LIG       0.0000
     5  C5         0.5420      1.1266     -1.2833  C       1  LIG       0.0000
     6  C6        -0.1747      1.8923     -0.4100  C       1  LIG       0.0000
     7  C7        -0.9100      1.4819      0.8961  C       1  LIG       0.0000
     8  C8        -0.4212      0.2165      1.6651  C       1  LIG       0.0000
     9  C9        -0.3319     -1.1981      0.9617  C       1  LIG       0.0000
    10  H10       -0.2528      1.2423     -0.3762  H       1  LIG       0.0000
    11  H11       -1.5668      0.0334     -0.5044  H       1  LIG       0.0000
    12  H12        0.2798     -1.2917     -1.6453  H       1  LIG       0.0000
    13  H13        1.7505     -1.8884      0.4545  H       1  LIG       0.0000
    14  H14        1.5448     -2.6819     -1.0164  H       1  LIG       0.0000
    15  H15        1.2388     -1.0211     -2.0345  H       1  LIG       0.0000
    16  H16        1.0770      1.5429     -2.1461  H       1  LIG       0.0000
    17  H17       -0.2345      2.9561     -0.6732  H       1  LIG       0.0000
    18  H18       -1.5657      1.1688      1.6493  H       1  LIG       0.0000
    19  H19       -1.2477      2.4883      0.5133  H       1  LIG       0.0000
    20  H20       -0.9246     -0.2918      2.4694  H       1  LIG       0.0000
    21  H21        0.4371      0.7743      2.0705  H       1  LIG       0.0000
    22  H22       -1.1192     -1.9024      0.7367  H       1  LIG       0.0000
    23  H23        0.3171     -1.7126      1.6787  H       1  LIG       0.0000
@<TRIPOS>BOND
    1     7    18  1
    2     8    20  1
    3     6    17  1
    4     7    19  1
    5     7     8  1
    6     6     7  1
    7     8    21  1
    8     8     9  1
    9     5     6  2
   10     9    23  1
   11     9    22  1
   12     2     9  1
   13     5    16  1
   14     4     5  1
   15     1    11  1
   16     1     4  1
   17     1     2  1
   18     1    10  1
   19     4    15  1
   20     3     4  1
   21     2     3  1
   22     2    12  1
   23     3    13  1
   24     3    14  1
