@<TRIPOS>MOLECULE
generated_molecule
15 15 0 0 0
SMALL
NO_CHARGES

@<TRIPOS>ATOM
     1  O1        -1.0537     -1.8784     -2.0270  O       1  LIG       0.0000
     2  C2        -0.1033     -1.5139     -1.3422  C       1  LIG       0.0000
     3  C3        -0.1544     -0.2367     -0.5173  C       1  LIG       0.0000
     4  C4         0.1171      1.3070     -0.5930  C       1  LIG       0.0000
     5  O5        -0.4115      1.8398      0.5694  O       1  LIG       0.0000
     6  C6        -0.6532      1.0143      1.6243  C       1  LIG       0.0000
     7  O7        -1.5995      1.0625      2.3523  O       1  LIG       0.0000
     8  O8         0.3324      0.1071      1.7526  O       1  LIG       0.0000
     9  C9         0.7061     -0.7473      0.7383  C       1  LIG       0.0000
    10  H10        0.8259     -2.0906     -1.3189  H       1  LIG       0.0000
    11  H11       -1.1039      0.1427     -0.7783  H       1  LIG       0.0000
    12  H12       -0.0981      1.3518     -1.6503  H       1  LIG       0.0000
    13  H13        0.9287      2.0602     -0.4257  H       1  LIG       0.0000
    14  H14        1.7664     -0.6234      0.9207  H       1  LIG       0.0000
    15  H15        0.5009     -1.7951      0.6952  H       1  LIG       0.0000
@<TRIPOS>BOND
    1     4    12  1
    2     4    13  1
    3     4     5  1
    4     3     4  1
    5     5     6  1
    6     3    11  1
    7     1     2  2
    8     2     3  1
    9     3     9  1
   10     2    10  1
   11     6     7  2
   12     6     8  1
   13     8     9  1
   14     9    14  1
   15     9    15  1
