@<TRIPOS>MOLECULE
generated_molecule
20 19 0 0 0
SMALL
NO_CHARGES

@<TRIPOS>ATOM
     1  C1        -0.0164     -0.7329      1.2680  C       1  LIG       0.0000
     2  N2        -1.1378     -0.1393      0.6115  N       1  LIG       0.0000
     3  C3        -0.7464      0.9974     -0.1312  C       1  LIG       0.0000
     4  O4        -1.2909      1.9953     -0.5726  O       1  LIG       0.0000
     5  N5         0.5760      0.8175     -0.4466  N       1  LIG       0.0000
     6  C6         2.1277      0.9484     -0.3589  C       1  LIG       0.0000
     7  C7        -0.6463      0.1786     -0.6601  C       1  LIG       0.0000
     8  C8        -0.5747     -1.3537     -0.6218  C       1  LIG       0.0000
     9  N9        -1.5912      0.9806     -0.8260  N       1  LIG       0.0000
    10  H10        0.9533     -0.5111      0.7923  H       1  LIG       0.0000
    11  H11        0.1325     -0.3559      2.2862  H       1  LIG       0.0000
    12  H12       -0.2710     -1.7553      1.2010  H       1  LIG       0.0000
    13  H13       -1.9933     -0.5910      0.4707  H       1  LIG       0.0000
    14  H14        2.5312      0.0415      0.0445  H       1  LIG       0.0000
    15  H15        2.5945      1.1599     -1.3207  H       1  LIG       0.0000
    16  H16        2.5201      1.7678      0.2711  H       1  LIG       0.0000
    17  H17        0.4562     -1.7664     -0.6401  H       1  LIG       0.0000
    18  H18       -1.0313     -1.6865      0.2915  H       1  LIG       0.0000
    19  H19       -1.0866     -1.7107     -1.4933  H       1  LIG       0.0000
    20  H20       -1.5055      1.7158     -0.1657  H       1  LIG       0.0000
@<TRIPOS>BOND
    1     8    17  1
    2     1    10  1
    3     8    18  1
    4     8    19  1
    5     7     8  1
    6     3     4  2
    7     1    11  1
    8     1    12  1
    9     1     2  1
   10     2     3  1
   11     3     5  1
   12     2    13  1
   13     5     7  1
   14     7     9  2
   15     5     6  1
   16     9    20  1
   17     6    16  1
   18     6    14  1
   19     6    15  1
