@<TRIPOS>MOLECULE
generated_molecule
12 12 0 0 0
SMALL
NO_CHARGES

@<TRIPOS>ATOM
     1  F1         0.9823     -2.4274      1.3167  F       1  LIG       0.0000
     2  C2         0.7978     -1.3565      0.6276  C       1  LIG       0.0000
     3  C3        -0.3079     -0.5082      0.8996  C       1  LIG       0.0000
     4  C4        -0.4554      0.5196     -0.0494  C       1  LIG       0.0000
     5  C5        -1.6517      1.3119     -0.0534  C       1  LIG       0.0000
     6  O6        -1.8432      2.3702      0.5854  O       1  LIG       0.0000
     7  N7         0.4346      0.8056     -1.0321  N       1  LIG       0.0000
     8  C8         1.4878     -0.0495     -1.1296  C       1  LIG       0.0000
     9  N9         1.7107     -1.1356     -0.3688  N       1  LIG       0.0000
    10  H10       -0.9137     -0.5998      1.7975  H       1  LIG       0.0000
    11  H11       -2.4575      0.9262     -0.7039  H       1  LIG       0.0000
    12  H12        2.2163      0.1435     -1.8894  H       1  LIG       0.0000
@<TRIPOS>BOND
    1     1     2  1
    2     2     3  ar
    3     2     9  ar
    4     3     4  ar
    5     3    10  1
    6     4     5  1
    7     4     7  ar
    8     5     6  2
    9     5    11  1
   10     7     8  ar
   11     8     9  ar
   12     8    12  1
