@<TRIPOS>MOLECULE
generated_molecule
19 20 0 0 0
SMALL
NO_CHARGES

@<TRIPOS>ATOM
     1  O1        -1.3314     -3.3451      0.6397  O       1  LIG       0.0000
     2  C2        -1.3571     -2.1878      0.2243  C       1  LIG       0.0000
     3  N3        -1.3437     -0.9881      0.9730  N       1  LIG       0.0000
     4  C4        -0.4324     -0.1893      1.6959  C       1  LIG       0.0000
     5  C5         0.5732      0.5675      0.8454  C       1  LIG       0.0000
     6  C6         1.3915      0.8866     -0.4047  C       1  LIG       0.0000
     7  C7         0.0485      1.5676     -0.9118  C       1  LIG       0.0000
     8  N8         0.1899      0.1800     -0.5722  N       1  LIG       0.0000
     9  C9         1.1665      0.2393     -1.6911  C       1  LIG       0.0000
    10  H10       -1.4150     -1.9945     -0.8464  H       1  LIG       0.0000
    11  H11       -2.1949     -0.5021      0.7112  H       1  LIG       0.0000
    12  H12       -1.3852      0.0316      2.2089  H       1  LIG       0.0000
    13  H13        0.3780     -0.2336      2.3723  H       1  LIG       0.0000
    14  H14        1.0806      1.1020      1.6321  H       1  LIG       0.0000
    15  H15        2.4507      0.7188     -0.1610  H       1  LIG       0.0000
    16  H16        0.4117      2.5481     -1.2318  H       1  LIG       0.0000
    17  H17       -1.0094      1.4080     -0.9884  H       1  LIG       0.0000
    18  H18        0.8439      0.7092     -2.6228  H       1  LIG       0.0000
    19  H19        1.9346     -0.5183     -1.8726  H       1  LIG       0.0000
@<TRIPOS>BOND
    1     7    16  1
    2     7    17  1
    3     7     8  1
    4     6     7  1
    5     3    11  1
    6     8     9  1
    7     5     8  1
    8     9    19  1
    9     4    13  1
   10     2    10  1
   11     2     3  1
   12     3     4  1
   13     6     9  1
   14     9    18  1
   15     1     2  2
   16     4     5  1
   17     4    12  1
   18     5     6  1
   19     6    15  1
   20     5    14  1
