@<TRIPOS>MOLECULE
generated_molecule
16 17 0 0 0
SMALL
NO_CHARGES

@<TRIPOS>ATOM
     1  O1         0.2769     -0.9140     -3.5479  O       1  LIG       0.0000
     2  C2         0.5048     -0.3863     -2.4334  C       1  LIG       0.0000
     3  O3         1.1108      0.7121     -2.0745  O       1  LIG       0.0000
     4  C4         0.7305      0.7424     -0.7178  C       1  LIG       0.0000
     5  C5         0.0314      1.4378      0.4409  C       1  LIG       0.0000
     6  C6        -0.6584      0.9311      1.4794  C       1  LIG       0.0000
     7  C7        -0.5410     -0.5622      1.7010  C       1  LIG       0.0000
     8  N8        -0.2893     -1.1254      0.3874  N       1  LIG       0.0000
     9  C9         0.2128     -0.7239     -0.9385  C       1  LIG       0.0000
    10  H10        1.5315      1.4048     -0.6729  H       1  LIG       0.0000
    11  H11        0.0790      2.5466      0.5553  H       1  LIG       0.0000
    12  H12       -1.2938      1.5129      2.1538  H       1  LIG       0.0000
    13  H13       -0.7052     -0.1477      2.7362  H       1  LIG       0.0000
    14  H14       -0.4638     -1.6083      1.8269  H       1  LIG       0.0000
    15  H15       -0.5850     -2.1150      0.4354  H       1  LIG       0.0000
    16  H16        0.0587     -1.7050     -1.3314  H       1  LIG       0.0000
@<TRIPOS>BOND
    1     4    10  1
    2     9    16  1
    3     3     4  1
    4     4     9  1
    5     4     5  1
    6     2     3  1
    7     5    11  1
    8     2     9  1
    9     8     9  1
   10     1     2  2
   11     5     6  2
   12     7    13  1
   13     6     7  1
   14     6    12  1
   15     7     8  1
   16     8    15  1
   17     7    14  1
