@<TRIPOS>MOLECULE
generated_molecule
19 20 0 0 0
SMALL
NO_CHARGES

@<TRIPOS>ATOM
     1  O1        -0.1716      1.8779     -0.0925  O       1  LIG       0.0000
     2  C2        -0.5506      0.6867      0.3178  C       1  LIG       0.0000
     3  C3        -1.9475      0.5456      0.8004  C       1  LIG       0.0000
     4  C4        -1.1551     -0.7106      0.4242  C       1  LIG       0.0000
     5  C5        -0.0936     -1.4111      1.2908  C       1  LIG       0.0000
     6  C6         0.5967     -0.2743      0.5831  C       1  LIG       0.0000
     7  C7         0.4126      0.4701     -0.7464  C       1  LIG       0.0000
     8  C8         1.5759      0.0612     -1.5447  C       1  LIG       0.0000
     9  C9         2.5192     -0.2586     -2.2089  C       1  LIG       0.0000
    10  H10        0.5852      2.0837     -0.6738  H       1  LIG       0.0000
    11  H11       -2.1678      0.6938      1.8491  H       1  LIG       0.0000
    12  H12       -2.6408      0.9309      0.0784  H       1  LIG       0.0000
    13  H13       -1.6334     -1.3625     -0.3204  H       1  LIG       0.0000
    14  H14        0.8419     -1.7724      1.7892  H       1  LIG       0.0000
    15  H15       -0.8166     -2.1877      1.7247  H       1  LIG       0.0000
    16  H16        1.4226     -0.5177      1.2384  H       1  LIG       0.0000
    17  H17       -0.5105      0.1707     -1.2330  H       1  LIG       0.0000
    18  H18        0.3776      1.5160     -0.4856  H       1  LIG       0.0000
    19  H19        3.3559     -0.5415     -2.7910  H       1  LIG       0.0000
@<TRIPOS>BOND
    1     3    11  1
    2     3    12  1
    3     2     3  1
    4     3     4  1
    5     1    10  1
    6     7    17  1
    7     1     2  1
    8     2     4  1
    9     2     6  1
   10     4    13  1
   11     4     5  1
   12     7    18  1
   13     5    15  1
   14     6     7  1
   15     7     8  1
   16     5     6  1
   17     6    16  1
   18     5    14  1
   19     8     9  3
   20     9    19  1
