@<TRIPOS>MOLECULE
generated_molecule
20 20 0 0 0
SMALL
NO_CHARGES

@<TRIPOS>ATOM
     1  C1        -1.9725      0.9767      0.2200  C       1  LIG       0.0000
     2  O2        -1.0821      0.1361     -0.3611  O       1  LIG       0.0000
     3  C3        -0.4605     -1.0545     -0.4564  C       1  LIG       0.0000
     4  C4         0.0323     -1.9485     -1.6291  C       1  LIG       0.0000
     5  C5         0.5613     -0.2477      0.2116  C       1  LIG       0.0000
     6  C6         1.9240     -0.1515      0.1886  C       1  LIG       0.0000
     7  C7         2.1360      1.0438      0.7820  C       1  LIG       0.0000
     8  C8         0.8761      1.5510      1.2053  C       1  LIG       0.0000
     9  N9        -0.0891      0.7029      0.8811  N       1  LIG       0.0000
    10  H10       -1.3507      1.5723      0.8751  H       1  LIG       0.0000
    11  H11       -2.7919      0.5106      0.7734  H       1  LIG       0.0000
    12  H12       -2.5113      1.5412     -0.5197  H       1  LIG       0.0000
    13  H13       -1.0862     -1.8451      0.0188  H       1  LIG       0.0000
    14  H14       -0.6059     -1.7826     -2.4490  H       1  LIG       0.0000
    15  H15        0.0498     -3.0188     -1.3404  H       1  LIG       0.0000
    16  H16        1.0751     -1.7307     -1.9462  H       1  LIG       0.0000
    17  H17        2.6676     -0.9066     -0.1418  H       1  LIG       0.0000
    18  H18        3.0766      1.5718      0.8789  H       1  LIG       0.0000
    19  H19        0.6278      2.4632      1.6789  H       1  LIG       0.0000
    20  H20       -1.0764      0.6164      1.1301  H       1  LIG       0.0000
@<TRIPOS>BOND
    1     4    16  1
    2     4    14  1
    3     4    15  1
    4     3     4  1
    5     6    17  1
    6     1    11  1
    7     3    13  1
    8     3     5  1
    9     2     3  1
   10     5     6  ar
   11     6     7  ar
   12     1    12  1
   13     1     2  1
   14     1    10  1
   15     5     9  ar
   16     7    18  1
   17     7     8  ar
   18     8     9  ar
   19     9    20  1
   20     8    19  1
