@<TRIPOS>MOLECULE
generated_molecule
23 23 0 0 0
SMALL
NO_CHARGES

@<TRIPOS>ATOM
     1  C1         1.3758      0.9790     -1.1664  C       1  LIG       0.0000
     2  C2         0.8236     -0.1597     -0.2973  C       1  LIG       0.0000
     3  C3        -0.0712     -0.3494     -1.5347  C       1  LIG       0.0000
     4  C4        -1.2843     -0.4367     -0.6339  C       1  LIG       0.0000
     5  C5        -1.1240      0.7849      0.3336  C       1  LIG       0.0000
     6  C6        -1.1592      0.5634      1.8427  C       1  LIG       0.0000
     7  O7        -0.2707      0.7455      2.6667  O       1  LIG       0.0000
     8  C8         1.3581     -0.4643      1.1391  C       1  LIG       0.0000
     9  C9         0.2415     -1.2848      0.6005  C       1  LIG       0.0000
    10  H10        2.2190      0.6457     -1.7884  H       1  LIG       0.0000
    11  H11        1.7166      1.8318     -0.5705  H       1  LIG       0.0000
    12  H12        0.5988      1.3465     -1.8497  H       1  LIG       0.0000
    13  H13       -0.7187     -0.8794     -2.3186  H       1  LIG       0.0000
    14  H14        0.7481      0.0337     -2.0906  H       1  LIG       0.0000
    15  H15       -1.8690     -0.7232     -1.4787  H       1  LIG       0.0000
    16  H16       -1.5890     -1.2191      0.1399  H       1  LIG       0.0000
    17  H17       -1.9352      1.3393     -0.0325  H       1  LIG       0.0000
    18  H18       -0.1386      1.2576      0.2616  H       1  LIG       0.0000
    19  H19       -2.1089      0.1730      2.2352  H       1  LIG       0.0000
    20  H20        1.2967      0.4182      1.7291  H       1  LIG       0.0000
    21  H21        2.1357     -1.1821      1.4471  H       1  LIG       0.0000
    22  H22       -0.7323     -1.1060      1.0334  H       1  LIG       0.0000
    23  H23        0.4874     -2.3137      0.3324  H       1  LIG       0.0000
@<TRIPOS>BOND
    1     6    19  1
    2     6     7  2
    3     5     6  1
    4     4    16  1
    5     5    17  1
    6     4     5  1
    7     5    18  1
    8     4    15  1
    9     3     4  1
   10     8    20  1
   11     3    13  1
   12     8    21  1
   13     2     3  1
   14     3    14  1
   15     2     8  1
   16     8     9  1
   17     1    11  1
   18     1     2  1
   19     2     9  1
   20     1    10  1
   21     1    12  1
   22     9    23  1
   23     9    22  1
