@<TRIPOS>MOLECULE
generated_molecule
23 23 0 0 0
SMALL
NO_CHARGES

@<TRIPOS>ATOM
     1  C1        -0.5766     -1.2156     -2.0575  C       1  LIG       0.0000
     2  C2         0.7901     -1.0070     -1.2452  C       1  LIG       0.0000
     3  C3         0.9028     -0.4300      0.1841  C       1  LIG       0.0000
     4  C4         0.3510      0.2339      1.5454  C       1  LIG       0.0000
     5  C5        -0.0213     -0.5381      2.8567  C       1  LIG       0.0000
     6  C6         0.0180      0.8003      0.1467  C       1  LIG       0.0000
     7  C7        -0.9933      0.5767     -0.9995  C       1  LIG       0.0000
     8  C8         0.4577      2.2032      0.2749  C       1  LIG       0.0000
     9  O9         0.7113      2.7886      1.3269  O       1  LIG       0.0000
    10  H10       -0.5167     -1.7831     -2.9851  H       1  LIG       0.0000
    11  H11       -1.3214     -1.6646     -1.4188  H       1  LIG       0.0000
    12  H12       -0.9902     -0.2212     -2.3764  H       1  LIG       0.0000
    13  H13        1.3500     -1.8774     -1.0472  H       1  LIG       0.0000
    14  H14        1.1706     -0.4467     -2.1368  H       1  LIG       0.0000
    15  H15        1.8203     -0.6928      0.6993  H       1  LIG       0.0000
    16  H16        0.4792      1.1487      2.1001  H       1  LIG       0.0000
    17  H17       -1.0619     -0.3451      3.2083  H       1  LIG       0.0000
    18  H18        0.0690     -1.6320      2.8272  H       1  LIG       0.0000
    19  H19        0.6240     -0.1901      3.6815  H       1  LIG       0.0000
    20  H20       -1.3404     -0.4694     -1.1269  H       1  LIG       0.0000
    21  H21       -0.5503      0.8855     -1.9451  H       1  LIG       0.0000
    22  H22       -1.8722      1.1839     -0.8164  H       1  LIG       0.0000
    23  H23        0.5000      2.6921     -0.6963  H       1  LIG       0.0000
@<TRIPOS>BOND
    1     5    19  1
    2     5    18  1
    3     5    17  1
    4     4     5  1
    5     1    11  1
    6     1    10  1
    7     1    12  1
    8     1     2  1
    9     4    16  1
   10     3     4  1
   11     4     6  1
   12     2    13  1
   13     2     3  1
   14     2    14  1
   15     7    20  1
   16     3    15  1
   17     3     6  1
   18     6     7  1
   19     6     8  1
   20     7    22  1
   21     7    21  1
   22     8     9  2
   23     8    23  1
