@<TRIPOS>MOLECULE
generated_molecule
19 20 0 0 0
SMALL
NO_CHARGES

@<TRIPOS>ATOM
     1  C1         1.3972     -0.7701      2.3433  C       1  LIG       0.0000
     2  N2         0.8115     -0.8972      1.0704  N       1  LIG       0.0000
     3  C3        -0.0934     -0.3196      0.4088  C       1  LIG       0.0000
     4  C4        -1.4425      0.1748      0.2117  C       1  LIG       0.0000
     5  O5        -1.4514      0.8784      1.4259  O       1  LIG       0.0000
     6  C6        -1.1002     -0.2022     -1.2220  C       1  LIG       0.0000
     7  C7         0.1495     -0.2686     -2.1561  C       1  LIG       0.0000
     8  C8         0.7291      0.9998     -1.5766  C       1  LIG       0.0000
     9  N9         0.3328     -0.2032     -0.9103  N       1  LIG       0.0000
    10  H10        0.5854     -0.8096      3.0575  H       1  LIG       0.0000
    11  H11        2.1051     -1.5417      2.5377  H       1  LIG       0.0000
    12  H12        1.9379      0.1771      2.4298  H       1  LIG       0.0000
    13  H13       -2.5119      0.1256     -0.0232  H       1  LIG       0.0000
    14  H14       -1.9880      1.0518      2.1667  H       1  LIG       0.0000
    15  H15       -2.1027     -0.4267     -1.6120  H       1  LIG       0.0000
    16  H16        0.9499     -0.9800     -1.9351  H       1  LIG       0.0000
    17  H17       -0.2694     -0.2538     -3.1453  H       1  LIG       0.0000
    18  H18        1.7147      1.2871     -1.2041  H       1  LIG       0.0000
    19  H19        0.2463      1.9782     -1.8672  H       1  LIG       0.0000
@<TRIPOS>BOND
    1     6    15  1
    2     4    13  1
    3     4     6  1
    4     4     5  1
    5     3     4  1
    6     6     9  1
    7     6     7  1
    8     5    14  1
    9     7    16  1
   10     3     9  1
   11     8     9  1
   12     7    17  1
   13     7     8  1
   14     2     3  1
   15     1    11  1
   16     8    18  1
   17     8    19  1
   18     1     2  1
   19     1    12  1
   20     1    10  1
