@<TRIPOS>MOLECULE
generated_molecule
18 19 0 0 0
SMALL
NO_CHARGES

@<TRIPOS>ATOM
     1  C1         0.4097      2.5103     -1.5871  C       1  LIG       0.0000
     2  N2         0.2296      1.2302     -0.8208  N       1  LIG       0.0000
     3  C3         0.8423      0.0052     -0.9403  C       1  LIG       0.0000
     4  C4         0.3166     -0.9105     -0.0507  C       1  LIG       0.0000
     5  C5         0.1772     -2.3983      0.2930  C       1  LIG       0.0000
     6  O6        -0.0090     -2.2582      1.7179  O       1  LIG       0.0000
     7  C7        -0.7216     -1.1037      1.9676  C       1  LIG       0.0000
     8  C8        -0.4931     -0.1692      0.7623  C       1  LIG       0.0000
     9  C9        -0.6278      1.0859      0.2161  C       1  LIG       0.0000
    10  H10       -0.4743      3.1435     -1.5268  H       1  LIG       0.0000
    11  H11        1.2340      3.0712     -1.1676  H       1  LIG       0.0000
    12  H12        0.5965      2.3200     -2.6462  H       1  LIG       0.0000
    13  H13        1.6947     -0.1656     -1.5499  H       1  LIG       0.0000
    14  H14        1.0141     -3.0124      0.0728  H       1  LIG       0.0000
    15  H15       -0.7325     -2.9242     -0.1042  H       1  LIG       0.0000
    16  H16       -1.3114     -1.9795      2.2541  H       1  LIG       0.0000
    17  H17       -0.7904     -0.3048      2.6622  H       1  LIG       0.0000
    18  H18       -1.3545      1.8601      0.4477  H       1  LIG       0.0000
@<TRIPOS>BOND
    1     3    13  1
    2     5    15  1
    3     5    14  1
    4     4     5  1
    5     5     6  1
    6     3     4  ar
    7     2     3  ar
    8     1    11  1
    9     4     8  ar
   10     6     7  1
   11     1     2  1
   12     2     9  ar
   13     1    10  1
   14     1    12  1
   15     8     9  ar
   16     7     8  1
   17     9    18  1
   18     7    16  1
   19     7    17  1
