@<TRIPOS>MOLECULE
generated_molecule
20 21 0 0 0
SMALL
NO_CHARGES

@<TRIPOS>ATOM
     1  C1        -2.5288      0.7160      0.2628  C       1  LIG       0.0000
     2  C2        -1.0031      0.4195      0.0358  C       1  LIG       0.0000
     3  N3        -0.0688      0.3907      1.1912  N       1  LIG       0.0000
     4  C4         0.8169     -0.7981      1.3826  C       1  LIG       0.0000
     5  C5         1.3790      0.5042      0.8453  C       1  LIG       0.0000
     6  C6         1.0135      0.1747     -0.6190  C       1  LIG       0.0000
     7  O7         2.0158      0.6580     -1.4012  O       1  LIG       0.0000
     8  C8         0.7417     -1.2756     -0.0709  C       1  LIG       0.0000
     9  O9         0.7734     -1.5724     -1.4145  O       1  LIG       0.0000
    10  H10       -2.7936      1.7484      0.0079  H       1  LIG       0.0000
    11  H11       -2.7972      0.6378      1.3515  H       1  LIG       0.0000
    12  H12       -3.1161      0.0123     -0.2758  H       1  LIG       0.0000
    13  H13       -0.7317      1.2472     -0.6118  H       1  LIG       0.0000
    14  H14       -1.0015     -0.5491     -0.4297  H       1  LIG       0.0000
    15  H15        0.9799     -1.2779      2.3618  H       1  LIG       0.0000
    16  H16        2.1662      1.0664      1.3354  H       1  LIG       0.0000
    17  H17        0.1472      0.5804     -1.0964  H       1  LIG       0.0000
    18  H18        2.9062      0.3339     -1.3735  H       1  LIG       0.0000
    19  H19        0.4980     -2.1430      0.5101  H       1  LIG       0.0000
    20  H20        0.6028     -0.8735     -1.9915  H       1  LIG       0.0000
@<TRIPOS>BOND
    1     9    20  1
    2     8     9  1
    3     8    19  1
    4     4     8  1
    5     6     8  1
    6     4    15  1
    7     1    11  1
    8     3     4  1
    9     4     5  1
   10     7    18  1
   11     6     7  1
   12     6    17  1
   13     5     6  1
   14     1    10  1
   15     1    12  1
   16     1     2  1
   17     2    13  1
   18     3     5  1
   19     2     3  1
   20     5    16  1
   21     2    14  1
