@<TRIPOS>MOLECULE
generated_molecule
23 23 0 0 0
SMALL
NO_CHARGES

@<TRIPOS>ATOM
     1  C1        -0.0608      2.3431      0.9392  C       1  LIG       0.0000
     2  C2         1.1807      1.4215      0.6897  C       1  LIG       0.0000
     3  C3         1.0684      0.8554     -0.7303  C       1  LIG       0.0000
     4  C4         0.3912     -0.5598     -1.2066  C       1  LIG       0.0000
     5  O5        -0.6344     -0.9007     -2.1188  O       1  LIG       0.0000
     6  C6        -1.8188     -1.5891     -1.6829  C       1  LIG       0.0000
     7  C7        -1.3572     -1.8783     -0.2536  C       1  LIG       0.0000
     8  C8        -0.2037     -1.2230      0.0079  C       1  LIG       0.0000
     9  C9         0.4217     -1.1049      1.3773  C       1  LIG       0.0000
    10  H10        0.1530      3.1787      1.6156  H       1  LIG       0.0000
    11  H11       -0.8733      1.7532      1.3316  H       1  LIG       0.0000
    12  H12       -0.3409      2.7582     -0.0173  H       1  LIG       0.0000
    13  H13        1.3016      0.6549      1.4897  H       1  LIG       0.0000
    14  H14        2.0577      2.0526      1.0030  H       1  LIG       0.0000
    15  H15        0.9364      1.9101     -0.6852  H       1  LIG       0.0000
    16  H16        1.6627      0.4849     -1.5280  H       1  LIG       0.0000
    17  H17        1.0445     -0.9733     -1.9307  H       1  LIG       0.0000
    18  H18       -2.0808     -2.5422     -2.1450  H       1  LIG       0.0000
    19  H19       -2.6449     -0.8836     -1.7867  H       1  LIG       0.0000
    20  H20       -1.9244     -2.5123      0.4306  H       1  LIG       0.0000
    21  H21        0.6264     -2.1005      1.7780  H       1  LIG       0.0000
    22  H22        1.3396     -0.5372      1.3333  H       1  LIG       0.0000
    23  H23       -0.2451     -0.6078      2.0892  H       1  LIG       0.0000
@<TRIPOS>BOND
    1     7    20  1
    2     9    21  1
    3     9    22  1
    4     7     8  2
    5     6     7  1
    6     8     9  1
    7     9    23  1
    8     6    19  1
    9     4     8  1
   10     6    18  1
   11     5     6  1
   12     3    15  1
   13     3    16  1
   14     3     4  1
   15     4     5  1
   16     4    17  1
   17     2     3  1
   18     1    11  1
   19     1    10  1
   20     1     2  1
   21     1    12  1
   22     2    14  1
   23     2    13  1
