@<TRIPOS>MOLECULE
generated_molecule
18 18 0 0 0
SMALL
NO_CHARGES

@<TRIPOS>ATOM
     1  C1        -1.8248      1.0550     -0.2947  C       1  LIG       0.0000
     2  C2        -1.0258     -0.2378     -0.8016  C       1  LIG       0.0000
     3  C3         0.4144     -0.4274     -0.5048  C       1  LIG       0.0000
     4  O4        -0.2073      0.7534     -0.6772  O       1  LIG       0.0000
     5  C5         0.1076      0.6740      0.7093  C       1  LIG       0.0000
     6  C6         1.4013     -0.1914      0.7373  C       1  LIG       0.0000
     7  O7         2.2632     -1.1634      0.9391  O       1  LIG       0.0000
     8  C8         1.3064     -1.4797     -1.0890  C       1  LIG       0.0000
     9  N9         1.9369     -2.2817     -1.5884  N       1  LIG       0.0000
    10  H10       -2.8258      0.9789     -0.5228  H       1  LIG       0.0000
    11  H11       -1.5929      1.1327      0.7835  H       1  LIG       0.0000
    12  H12       -1.5016      2.0485     -0.6863  H       1  LIG       0.0000
    13  H13       -0.9866     -0.1961     -1.8722  H       1  LIG       0.0000
    14  H14       -1.5994     -1.0229     -0.3795  H       1  LIG       0.0000
    15  H15        0.2181      1.7365      0.7589  H       1  LIG       0.0000
    16  H16       -0.4806      0.0691      1.4124  H       1  LIG       0.0000
    17  H17        2.0079      0.3837      1.3870  H       1  LIG       0.0000
    18  H18        2.3891     -1.8314      1.6890  H       1  LIG       0.0000
@<TRIPOS>BOND
    1     8     9  3
    2     3     8  1
    3     6    17  1
    4     5    15  1
    5     5     6  1
    6     3     6  1
    7     6     7  1
    8     4     5  1
    9     5    16  1
   10     3     4  1
   11     2     3  1
   12     7    18  1
   13     1    11  1
   14     2    14  1
   15     1     2  1
   16     2    13  1
   17     1    10  1
   18     1    12  1
