@<TRIPOS>MOLECULE
generated_molecule
17 17 0 0 0
SMALL
NO_CHARGES

@<TRIPOS>ATOM
     1  N1         0.7572      1.8657      0.3261  N       1  LIG       0.0000
     2  H2         1.1525      2.7331     -0.0123  H       1  LIG       0.0000
     3  H3        -2.9240     -0.6680      0.1595  H       1  LIG       0.0000
     4  H4        -0.0461      2.3795      0.6345  H       1  LIG       0.0000
     5  C5         0.7823      0.5114      0.2489  C       1  LIG       0.0000
     6  C6         0.3783     -0.2083     -1.1090  C       1  LIG       0.0000
     7  C7         0.6654     -1.5497     -0.5158  C       1  LIG       0.0000
     8  C8        -0.0368     -0.7299      0.5744  C       1  LIG       0.0000
     9  C9        -1.1954      0.2133      0.6700  C       1  LIG       0.0000
    10  O10       -1.2269      1.1454      1.4216  O       1  LIG       0.0000
    11  O11       -2.2002     -0.1359     -0.1406  O       1  LIG       0.0000
    12  H12        1.4846      0.5231      1.0559  H       1  LIG       0.0000
    13  H13       -0.5542      0.3171     -1.2227  H       1  LIG       0.0000
    14  H14        0.9199     -0.4778     -1.9999  H       1  LIG       0.0000
    15  H15        0.1849     -2.4809     -0.9369  H       1  LIG       0.0000
    16  H16        1.7479     -1.8938     -0.4396  H       1  LIG       0.0000
    17  H17        0.1106     -1.5441      1.2860  H       1  LIG       0.0000
@<TRIPOS>BOND
    1     1     2  1
    2     1     4  1
    3     1     5  1
    4     3    11  1
    5     6    14  1
    6     5     6  1
    7     5    12  1
    8     5     8  1
    9     6    13  1
   10     9    11  1
   11     6     7  1
   12     8     9  1
   13     9    10  2
   14     7     8  1
   15     8    17  1
   16     7    16  1
   17     7    15  1
