@<TRIPOS>MOLECULE
generated_molecule
22 22 0 0 0
SMALL
NO_CHARGES

@<TRIPOS>ATOM
     1  C1         0.6930      0.0407     -0.7595  C       1  LIG       0.0000
     2  C2        -0.0496     -1.1086     -0.0631  C       1  LIG       0.0000
     3  C3        -0.7256     -1.3144      1.3106  C       1  LIG       0.0000
     4  C4        -1.5412     -0.9907      0.0724  C       1  LIG       0.0000
     5  C5        -0.9317     -0.0774     -1.0070  C       1  LIG       0.0000
     6  C6         0.2683      0.5213     -0.2838  C       1  LIG       0.0000
     7  C7         0.4098      2.0242     -0.1326  C       1  LIG       0.0000
     8  N8         1.2300     -0.1820      0.1292  N       1  LIG       0.0000
     9  O9         1.2248     -0.6516      1.3542  O       1  LIG       0.0000
    10  H10        0.1947      0.3248     -1.6961  H       1  LIG       0.0000
    11  H11        0.7864      0.9733     -0.1898  H       1  LIG       0.0000
    12  H12        1.6860     -0.3304     -0.9704  H       1  LIG       0.0000
    13  H13        0.3612     -2.0128     -0.4661  H       1  LIG       0.0000
    14  H14        0.1275     -1.0165      1.8981  H       1  LIG       0.0000
    15  H15       -1.5319     -1.8183      1.8456  H       1  LIG       0.0000
    16  H16       -2.5561     -1.3647      0.2570  H       1  LIG       0.0000
    17  H17       -0.4651     -0.5443     -1.8680  H       1  LIG       0.0000
    18  H18       -1.8802      0.3894     -1.2415  H       1  LIG       0.0000
    19  H19        1.3961      2.2447      0.2555  H       1  LIG       0.0000
    20  H20        0.3004      2.5523     -1.0915  H       1  LIG       0.0000
    21  H21       -0.3276      2.4169      0.5654  H       1  LIG       0.0000
    22  H22        1.3307     -0.0759      2.0815  H       1  LIG       0.0000
@<TRIPOS>BOND
    1     1    11  1
    2     2    13  1
    3     3    14  1
    4     1     2  1
    5     1    12  1
    6     1    10  1
    7     2     3  1
    8     2     4  1
    9     3    15  1
   10     3     4  1
   11     4    16  1
   12     4     5  1
   13     5    17  1
   14     5    18  1
   15     5     6  1
   16     6     8  2
   17     6     7  1
   18     8     9  1
   19     7    19  1
   20     7    21  1
   21     7    20  1
   22     9    22  1
