@<TRIPOS>MOLECULE
generated_molecule
16 18 0 0 0
SMALL
NO_CHARGES

@<TRIPOS>ATOM
     1  O1        -1.4608      2.1358     -0.1891  O       1  LIG       0.0000
     2  C2        -0.6328      1.1198     -0.1034  C       1  LIG       0.0000
     3  C3        -0.6353     -0.1167     -0.9856  C       1  LIG       0.0000
     4  C4        -0.4317     -1.4441     -0.2880  C       1  LIG       0.0000
     5  C5         0.5279     -0.6709      0.7192  C       1  LIG       0.0000
     6  O6         1.0951     -1.1691      1.6347  O       1  LIG       0.0000
     7  C7         0.7528      0.7973      0.4631  C       1  LIG       0.0000
     8  N8         1.6276     -0.2011      0.6843  N       1  LIG       0.0000
     9  C9         0.1669     -0.1514      0.3813  C       1  LIG       0.0000
    10  H10       -1.9040      2.4708     -0.9628  H       1  LIG       0.0000
    11  H11       -0.9310      0.2260     -1.9600  H       1  LIG       0.0000
    12  H12       -1.2077     -1.9896      0.2592  H       1  LIG       0.0000
    13  H13       -0.2747     -2.0364     -1.1727  H       1  LIG       0.0000
    14  H14        0.9926      1.8947      0.4086  H       1  LIG       0.0000
    15  H15        2.4128      0.0695      0.0241  H       1  LIG       0.0000
    16  H16       -0.0977     -0.9347      1.0871  H       1  LIG       0.0000
@<TRIPOS>BOND
    1     5     6  2
    2     4    13  1
    3     4     5  1
    4     5     7  1
    5     4    12  1
    6     3     4  1
    7     7    14  1
    8     2     7  1
    9     7     8  1
   10     2     3  1
   11     3    11  1
   12     3     9  1
   13     1     2  1
   14     2     9  1
   15     1    10  1
   16     8    15  1
   17     8     9  1
   18     9    16  1
