@<TRIPOS>MOLECULE
generated_molecule
18 18 0 0 0
SMALL
NO_CHARGES

@<TRIPOS>ATOM
     1  C1         1.4738     -0.5696      1.2537  C       1  LIG       0.0000
     2  O2         1.1987     -1.2099      0.0452  O       1  LIG       0.0000
     3  C3         0.0852     -1.0502     -0.7449  C       1  LIG       0.0000
     4  C4        -0.7405     -0.1652      0.1556  C       1  LIG       0.0000
     5  C5         0.0694      0.8861      0.8931  C       1  LIG       0.0000
     6  O6         0.3236      2.0317      0.1476  O       1  LIG       0.0000
     7  C7        -0.8717     -0.0135     -1.3538  C       1  LIG       0.0000
     8  C8        -2.1764     -0.2352     -2.0203  C       1  LIG       0.0000
     9  N9        -3.1879     -0.3566     -2.5692  N       1  LIG       0.0000
    10  H10        2.1916      0.2165      1.0661  H       1  LIG       0.0000
    11  H11        1.8222     -1.2862      1.9607  H       1  LIG       0.0000
    12  H12        0.5559     -0.0955      1.6525  H       1  LIG       0.0000
    13  H13        0.0591     -1.9227     -1.3987  H       1  LIG       0.0000
    14  H14       -1.5471     -0.7318      0.6226  H       1  LIG       0.0000
    15  H15        1.0498      0.4866      1.1585  H       1  LIG       0.0000
    16  H16       -0.5184      1.1733      1.7326  H       1  LIG       0.0000
    17  H17        0.5421      2.0097     -0.7960  H       1  LIG       0.0000
    18  H18       -0.3294      0.8326     -1.8051  H       1  LIG       0.0000
@<TRIPOS>BOND
    1     7    18  1
    2     3    13  1
    3     3     7  1
    4     7     8  1
    5     4     7  1
    6     4    14  1
    7     3     4  1
    8     2     3  1
    9     8     9  3
   10     4     5  1
   11     1    10  1
   12     1    11  1
   13     1     2  1
   14     1    12  1
   15     6    17  1
   16     5     6  1
   17     5    15  1
   18     5    16  1
