@<TRIPOS>MOLECULE
generated_molecule
20 21 0 0 0
SMALL
NO_CHARGES

@<TRIPOS>ATOM
     1  C1         1.5133     -0.7894      1.9732  C       1  LIG       0.0000
     2  C2         0.7830     -0.6160      0.6110  C       1  LIG       0.0000
     3  C3         0.4140      0.8685      1.0108  C       1  LIG       0.0000
     4  C4        -0.3062      1.2119     -0.2700  C       1  LIG       0.0000
     5  N5        -0.2759      1.9370     -1.3345  N       1  LIG       0.0000
     6  O6        -1.1375      2.4189     -2.1764  O       1  LIG       0.0000
     7  C7        -1.1980      0.0078     -0.3357  C       1  LIG       0.0000
     8  C8        -0.8420     -0.6850     -1.6547  C       1  LIG       0.0000
     9  C9        -0.3131     -1.2234     -0.2984  C       1  LIG       0.0000
    10  H10        1.7204     -1.8519      2.1321  H       1  LIG       0.0000
    11  H11        0.8984     -0.4452      2.7986  H       1  LIG       0.0000
    12  H12        2.4430     -0.2452      1.9549  H       1  LIG       0.0000
    13  H13        1.2633     -1.1540     -0.1526  H       1  LIG       0.0000
    14  H14        1.3903      1.0378      1.4674  H       1  LIG       0.0000
    15  H15       -0.3330      1.4431      1.5411  H       1  LIG       0.0000
    16  H16       -1.6128      1.7827     -2.7022  H       1  LIG       0.0000
    17  H17       -2.1309      0.0475      0.2375  H       1  LIG       0.0000
    18  H18       -0.5482      0.1372     -2.3029  H       1  LIG       0.0000
    19  H19       -1.1923     -1.5791     -2.1376  H       1  LIG       0.0000
    20  H20       -0.5358     -2.3031     -0.3615  H       1  LIG       0.0000
@<TRIPOS>BOND
    1     6    16  1
    2     5     6  1
    3     3    14  1
    4     3    15  1
    5     4     5  1
    6     3     4  1
    7     2     3  1
    8     1    11  1
    9     4     7  1
   10     1    10  1
   11     1     2  1
   12     1    12  1
   13     2    13  1
   14     2     9  1
   15     8    19  1
   16     7     8  1
   17     7     9  1
   18     7    17  1
   19     8     9  1
   20     8    18  1
   21     9    20  1
