@<TRIPOS>MOLECULE
generated_molecule
20 20 0 0 0
SMALL
NO_CHARGES

@<TRIPOS>ATOM
     1  C1        -0.6061      1.4537      2.6918  C       1  LIG       0.0000
     2  C2        -0.3981      1.1341      1.1063  C       1  LIG       0.0000
     3  C3         0.5684      0.2775      0.1813  C       1  LIG       0.0000
     4  C4        -0.5558     -0.8137      0.1386  C       1  LIG       0.0000
     5  O5        -0.8684     -1.1040     -1.1727  O       1  LIG       0.0000
     6  C6        -0.0677     -1.4893     -2.2195  C       1  LIG       0.0000
     7  C7         1.2005     -0.5382     -2.1393  C       1  LIG       0.0000
     8  O8         1.4483     -0.1085     -0.8051  O       1  LIG       0.0000
     9  H9        -0.8522      2.4873      2.8050  H       1  LIG       0.0000
    10  H10       -1.3545      0.8272      3.1768  H       1  LIG       0.0000
    11  H11        0.2970      1.2723      3.3523  H       1  LIG       0.0000
    12  H12       -0.0800      2.1177      0.9376  H       1  LIG       0.0000
    13  H13       -1.2274      0.5978      0.8828  H       1  LIG       0.0000
    14  H14        1.4911      0.7463      0.2387  H       1  LIG       0.0000
    15  H15       -1.1723     -0.2889      0.7884  H       1  LIG       0.0000
    16  H16       -0.4033     -1.8650      0.3547  H       1  LIG       0.0000
    17  H17        0.3072     -1.6581     -3.2111  H       1  LIG       0.0000
    18  H18       -0.7695     -2.2881     -1.9632  H       1  LIG       0.0000
    19  H19        2.2522     -0.5713     -2.0676  H       1  LIG       0.0000
    20  H20        0.7905     -0.1891     -3.0757  H       1  LIG       0.0000
@<TRIPOS>BOND
    1     6    17  1
    2     7    20  1
    3     7    19  1
    4     6     7  1
    5     7     8  1
    6     6    18  1
    7     5     6  1
    8     4     5  1
    9     3     8  1
   10     3    14  1
   11     3     4  1
   12     2     3  1
   13     4    16  1
   14     4    15  1
   15     1    10  1
   16     1     2  1
   17     2    13  1
   18     2    12  1
   19     1     9  1
   20     1    11  1
