@<TRIPOS>MOLECULE
generated_molecule
15 15 0 0 0
SMALL
NO_CHARGES

@<TRIPOS>ATOM
     1  C1         0.8632     -2.2804      0.9964  C       1  LIG       0.0000
     2  C2        -0.2485     -1.9853      0.6083  C       1  LIG       0.0000
     3  C3        -1.5853     -1.5430      0.1017  C       1  LIG       0.0000
     4  N4        -1.6163     -0.2741     -0.5477  N       1  LIG       0.0000
     5  C5        -0.5799      0.5259     -0.4229  C       1  LIG       0.0000
     6  C6         0.8064      0.9216     -0.8119  C       1  LIG       0.0000
     7  C7         0.6859      2.2505      0.0172  C       1  LIG       0.0000
     8  O8        -0.5712      1.6530      0.3060  O       1  LIG       0.0000
     9  H9         1.8434     -2.5072      1.3333  H       1  LIG       0.0000
    10  H10       -2.1242     -1.7728      1.0418  H       1  LIG       0.0000
    11  H11       -2.0431     -2.0565     -0.7017  H       1  LIG       0.0000
    12  H12        0.9112      1.0563     -1.8893  H       1  LIG       0.0000
    13  H13        1.6503      0.3815     -0.3784  H       1  LIG       0.0000
    14  H14        0.2837      3.2726     -0.0184  H       1  LIG       0.0000
    15  H15        1.7246      2.3580      0.3656  H       1  LIG       0.0000
@<TRIPOS>BOND
    1     7    14  1
    2     6    12  1
    3     6     7  1
    4     7    15  1
    5     7     8  1
    6     6    13  1
    7     5     6  1
    8     5     8  1
    9     1     9  1
   10     4     5  1
   11     1     2  3
   12     3     4  1
   13     2     3  1
   14     3    11  1
   15     3    10  1
