@<TRIPOS>MOLECULE
generated_molecule
17 19 0 0 0
SMALL
NO_CHARGES

@<TRIPOS>ATOM
     1  O1        -1.9412     -1.1380      1.3917  O       1  LIG       0.0000
     2  C2        -1.0321     -0.4678      0.8756  C       1  LIG       0.0000
     3  C3         0.2760     -0.6820      0.3885  C       1  LIG       0.0000
     4  C4         0.2514     -1.6909     -0.7291  C       1  LIG       0.0000
     5  N5         1.4427     -0.9590     -0.4578  N       1  LIG       0.0000
     6  C6        -0.4401      0.1079      1.5184  C       1  LIG       0.0000
     7  C7        -0.1624      0.6322      0.2220  C       1  LIG       0.0000
     8  C8        -0.2271      1.4111     -1.0636  C       1  LIG       0.0000
     9  N9         1.0308      1.2529     -0.3939  N       1  LIG       0.0000
    10  H10        0.5728     -2.7342     -0.7257  H       1  LIG       0.0000
    11  H11       -0.6277     -1.5604     -1.3281  H       1  LIG       0.0000
    12  H12        1.8648     -0.0492     -0.4909  H       1  LIG       0.0000
    13  H13       -1.1291      0.9141      1.7528  H       1  LIG       0.0000
    14  H14       -0.1827     -0.5146      2.3635  H       1  LIG       0.0000
    15  H15        0.1603      1.4533     -2.1046  H       1  LIG       0.0000
    16  H16       -1.2133      1.8410     -1.0895  H       1  LIG       0.0000
    17  H17        1.3571      2.1836     -0.1293  H       1  LIG       0.0000
@<TRIPOS>BOND
    1     4    11  1
    2     9    17  1
    3     4    10  1
    4     7     9  1
    5     8     9  1
    6     3     4  1
    7     4     5  1
    8     1     2  2
    9     6    13  1
   10     2     3  1
   11     2     7  1
   12     3     6  1
   13     3     5  1
   14     6     7  1
   15     7     8  1
   16     6    14  1
   17     8    16  1
   18     8    15  1
   19     5    12  1
