@<TRIPOS>MOLECULE
generated_molecule
21 20 0 0 0
SMALL
NO_CHARGES

@<TRIPOS>ATOM
     1  C1         1.1463      0.6627      1.6971  C       1  LIG       0.0000
     2  C2        -0.0803     -0.2322      1.3289  C       1  LIG       0.0000
     3  C3        -1.0776      0.5930      0.4551  C       1  LIG       0.0000
     4  O4        -2.0807     -0.3795      0.3006  O       1  LIG       0.0000
     5  C5        -0.3452      1.3286     -0.6910  C       1  LIG       0.0000
     6  C6         0.2596      0.4006     -1.7919  C       1  LIG       0.0000
     7  O7         0.4501     -0.9045     -1.4981  O       1  LIG       0.0000
     8  C8         0.3902     -2.1999     -1.2007  C       1  LIG       0.0000
     9  O9        -0.0331     -2.5815     -0.1596  O       1  LIG       0.0000
    10  H10        1.7664      0.8243      0.8192  H       1  LIG       0.0000
    11  H11        1.6979      0.2039      2.4967  H       1  LIG       0.0000
    12  H12        0.8303      1.6704      2.0047  H       1  LIG       0.0000
    13  H13       -0.5348     -0.5965      2.2441  H       1  LIG       0.0000
    14  H14        0.2703     -1.0923      0.7693  H       1  LIG       0.0000
    15  H15       -1.6006      1.4643      0.7386  H       1  LIG       0.0000
    16  H16       -2.0349     -1.2881      0.5477  H       1  LIG       0.0000
    17  H17       -1.1498      2.0464     -0.7517  H       1  LIG       0.0000
    18  H18        0.6022      1.8803     -0.6626  H       1  LIG       0.0000
    19  H19        1.0191      1.0706     -1.9989  H       1  LIG       0.0000
    20  H20       -0.2508     -0.0439     -2.6505  H       1  LIG       0.0000
    21  H21        0.7556     -2.8265     -1.9972  H       1  LIG       0.0000
@<TRIPOS>BOND
    1     6    19  1
    2     8     9  2
    3     8    21  1
    4     7     8  1
    5     6     7  1
    6     6    20  1
    7     5     6  1
    8     3    15  1
    9     5    18  1
   10     3     5  1
   11     5    17  1
   12     3     4  1
   13     4    16  1
   14     2     3  1
   15     1    11  1
   16     2    14  1
   17     1     2  1
   18     2    13  1
   19     1    10  1
   20     1    12  1
