@<TRIPOS>MOLECULE
generated_molecule
19 19 0 0 0
SMALL
NO_CHARGES

@<TRIPOS>ATOM
     1  C1         0.7674      1.3716      1.6436  C       1  LIG       0.0000
     2  O2         0.9514      0.0040      1.4993  O       1  LIG       0.0000
     3  C3         0.3811     -1.0259      0.7728  C       1  LIG       0.0000
     4  C4        -0.9441     -1.4911      0.0345  C       1  LIG       0.0000
     5  C5        -1.0503     -0.8831     -1.3840  C       1  LIG       0.0000
     6  C6         0.0214      0.0891     -1.0168  C       1  LIG       0.0000
     7  C7        -0.1163      1.5440     -1.0465  C       1  LIG       0.0000
     8  O8         0.2025      2.2514     -1.9861  O       1  LIG       0.0000
     9  C9         1.0284     -0.6329     -0.5015  C       1  LIG       0.0000
    10  H10        1.4885      1.7545      2.3373  H       1  LIG       0.0000
    11  H11       -0.2434      1.5461      1.9916  H       1  LIG       0.0000
    12  H12        0.8879      1.8917      0.6848  H       1  LIG       0.0000
    13  H13        0.5777     -1.7998      1.5035  H       1  LIG       0.0000
    14  H14       -1.6311     -2.0194     -0.6522  H       1  LIG       0.0000
    15  H15       -1.0972     -1.6544      1.0586  H       1  LIG       0.0000
    16  H16       -1.5315     -0.1449     -2.0492  H       1  LIG       0.0000
    17  H17       -1.1884     -1.8419     -1.9342  H       1  LIG       0.0000
    18  H18       -0.5245      1.9381     -0.1119  H       1  LIG       0.0000
    19  H19        2.0206     -0.8968     -0.8435  H       1  LIG       0.0000
@<TRIPOS>BOND
    1     7     8  2
    2     7    18  1
    3     6     7  1
    4     6     9  2
    5     5     6  1
    6     5    16  1
    7     9    19  1
    8     3     9  1
    9     5    17  1
   10     4     5  1
   11     3    13  1
   12     3     4  1
   13     2     3  1
   14     4    14  1
   15     4    15  1
   16     1    11  1
   17     1    10  1
   18     1     2  1
   19     1    12  1
