@<TRIPOS>MOLECULE
generated_molecule
15 16 0 0 0
SMALL
NO_CHARGES

@<TRIPOS>ATOM
     1  O1        -0.5761     -0.3795     -2.5865  O       1  LIG       0.0000
     2  C2        -0.1286     -0.2413     -1.4777  C       1  LIG       0.0000
     3  C3         1.3523      0.1628     -1.2095  C       1  LIG       0.0000
     4  C4         1.3830      0.3217      0.3284  C       1  LIG       0.0000
     5  C5        -0.0648      0.2866      0.7203  C       1  LIG       0.0000
     6  C6        -0.7902     -0.4136     -0.1669  C       1  LIG       0.0000
     7  C7        -1.9461     -0.8463      0.4534  C       1  LIG       0.0000
     8  N8        -2.1214     -0.2142      1.6065  N       1  LIG       0.0000
     9  N9        -0.9551      0.5350      1.7006  N       1  LIG       0.0000
    10  H10        2.2687      0.6943     -1.0550  H       1  LIG       0.0000
    11  H11        1.3736     -0.2163     -2.2543  H       1  LIG       0.0000
    12  H12        1.6840      1.1943      0.8445  H       1  LIG       0.0000
    13  H13        2.1090     -0.4947      0.5238  H       1  LIG       0.0000
    14  H14       -2.5869     -1.6891      0.1920  H       1  LIG       0.0000
    15  H15       -1.0014      1.3002      2.3804  H       1  LIG       0.0000
@<TRIPOS>BOND
    1     4    12  1
    2     3    10  1
    3     7    14  1
    4     7     8  ar
    5     8     9  ar
    6     6     7  ar
    7     9    15  1
    8     5     9  ar
    9     5     6  ar
   10     2     6  1
   11     1     2  2
   12     4     5  1
   13     2     3  1
   14     3     4  1
   15     4    13  1
   16     3    11  1
