@<TRIPOS>MOLECULE
generated_molecule
13 13 0 0 0
SMALL
NO_CHARGES

@<TRIPOS>ATOM
     1  C1        -1.3070     -1.5250     -0.3322  C       1  LIG       0.0000
     2  C2        -0.7059     -0.2269     -0.8109  C       1  LIG       0.0000
     3  O3        -1.1026      0.4122     -1.7484  O       1  LIG       0.0000
     4  C4         0.4230      0.1429      0.0438  C       1  LIG       0.0000
     5  C5         0.9588      1.3121      0.4783  C       1  LIG       0.0000
     6  O6         0.6692      2.6064      0.2106  O       1  LIG       0.0000
     7  N7         1.9433      1.0457      1.3310  N       1  LIG       0.0000
     8  N8         2.0885     -0.2832      1.4359  N       1  LIG       0.0000
     9  O9         1.1618     -0.8298      0.6125  O       1  LIG       0.0000
    10  H10       -2.3895     -1.4238     -0.4278  H       1  LIG       0.0000
    11  H11       -1.0613     -1.7339      0.7038  H       1  LIG       0.0000
    12  H12       -0.9065     -2.3345     -0.9374  H       1  LIG       0.0000
    13  H13        0.2281      2.8378     -0.5592  H       1  LIG       0.0000
@<TRIPOS>BOND
    1     7     8  ar
    2     8     9  ar
    3     5     7  ar
    4     4     9  ar
    5     4     5  ar
    6     5     6  1
    7     2     4  1
    8     6    13  1
    9     1    11  1
   10     1    10  1
   11     1     2  1
   12     2     3  2
   13     1    12  1
