@<TRIPOS>MOLECULE
generated_molecule
17 17 0 0 0
SMALL
NO_CHARGES

@<TRIPOS>ATOM
     1  C1        -0.6415      1.4441     -0.0909  C       1  LIG       0.0000
     2  C2         0.1899      0.1660     -0.2711  C       1  LIG       0.0000
     3  C3         0.9162      0.3779     -1.6465  C       1  LIG       0.0000
     4  C4         1.0119     -1.0214      0.2514  C       1  LIG       0.0000
     5  C5        -0.3168     -0.7041      0.8907  C       1  LIG       0.0000
     6  O6        -0.5470     -0.1460      2.1039  O       1  LIG       0.0000
     7  C7        -1.2055     -1.8638      1.0012  C       1  LIG       0.0000
     8  N8        -1.9583     -2.8012      1.1842  N       1  LIG       0.0000
     9  H9        -1.2333      1.4397      0.8247  H       1  LIG       0.0000
    10  H10       -1.3431      1.5905     -0.9263  H       1  LIG       0.0000
    11  H11        0.0336      2.2959     -0.0653  H       1  LIG       0.0000
    12  H12        0.3987     -0.0924     -2.5081  H       1  LIG       0.0000
    13  H13        0.9783      1.4420     -1.8580  H       1  LIG       0.0000
    14  H14        1.9413     -0.0263     -1.6637  H       1  LIG       0.0000
    15  H15        0.9768     -2.0436     -0.0839  H       1  LIG       0.0000
    16  H16        1.9301     -0.6070      0.5493  H       1  LIG       0.0000
    17  H17       -1.1315      0.5497      2.3084  H       1  LIG       0.0000
@<TRIPOS>BOND
    1     3    12  1
    2     1    10  1
    3     4    15  1
    4     3    13  1
    5     3    14  1
    6     2     3  1
    7     4    16  1
    8     2     4  1
    9     4     5  1
   10     1     2  1
   11     2     5  1
   12     1     9  1
   13     1    11  1
   14     5     7  1
   15     5     6  1
   16     7     8  3
   17     6    17  1
