@<TRIPOS>MOLECULE
generated_molecule
23 23 0 0 0
SMALL
NO_CHARGES

@<TRIPOS>ATOM
     1  C1         1.6994     -1.5005     -1.2446  C       1  LIG       0.0000
     2  C2         0.5352     -1.3666     -0.2324  C       1  LIG       0.0000
     3  C3        -0.0743     -0.5676      0.9268  C       1  LIG       0.0000
     4  C4         0.5187      0.5531      1.7790  C       1  LIG       0.0000
     5  C5        -0.3398     -0.0972     -0.4710  C       1  LIG       0.0000
     6  C6        -0.2330     -0.2829     -2.0011  C       1  LIG       0.0000
     7  C7        -1.0310      1.1729     -0.0801  C       1  LIG       0.0000
     8  C8        -1.5956      1.6346      1.3559  C       1  LIG       0.0000
     9  O9        -1.1840      1.9513     -0.9771  O       1  LIG       0.0000
    10  H10        1.9439     -2.5700     -1.3950  H       1  LIG       0.0000
    11  H11        1.4463     -1.0846     -2.2139  H       1  LIG       0.0000
    12  H12        2.6040     -1.0133     -0.8899  H       1  LIG       0.0000
    13  H13        0.3538     -2.3987      0.1359  H       1  LIG       0.0000
    14  H14       -0.7886     -1.2431      1.4078  H       1  LIG       0.0000
    15  H15        1.0326      1.3089      1.1863  H       1  LIG       0.0000
    16  H16        1.2334      0.1381      2.4806  H       1  LIG       0.0000
    17  H17       -0.2895      1.0491      2.3203  H       1  LIG       0.0000
    18  H18       -0.5347      0.6557     -2.4235  H       1  LIG       0.0000
    19  H19        0.7805     -0.5269     -2.3489  H       1  LIG       0.0000
    20  H20       -0.8777     -1.0924     -2.3882  H       1  LIG       0.0000
    21  H21       -2.6572      1.3998      1.4506  H       1  LIG       0.0000
    22  H22       -1.0674      1.1701      2.1917  H       1  LIG       0.0000
    23  H23       -1.4750      2.7105      1.4308  H       1  LIG       0.0000
@<TRIPOS>BOND
    1     1    11  1
    2     1    12  1
    3     1    10  1
    4     1     2  1
    5     4    17  1
    6     2    13  1
    7     2     3  1
    8     2     5  1
    9     4    15  1
   10     3     4  1
   11     4    16  1
   12     3    14  1
   13     3     5  1
   14     6    18  1
   15     5     6  1
   16     5     7  1
   17     7     9  2
   18     6    19  1
   19     6    20  1
   20     7     8  1
   21     8    21  1
   22     8    22  1
   23     8    23  1
