@<TRIPOS>MOLECULE
generated_molecule
20 20 0 0 0
SMALL
NO_CHARGES

@<TRIPOS>ATOM
     1  C1         0.3211      0.1699     -2.1851  C       1  LIG       0.0000
     2  C2         0.5356      0.7767     -0.8458  C       1  LIG       0.0000
     3  C3         0.3848     -0.4019      0.0819  C       1  LIG       0.0000
     4  N4         1.5107     -0.9987      0.8403  N       1  LIG       0.0000
     5  C5         0.8406      0.2127      1.3074  C       1  LIG       0.0000
     6  C6        -0.1102      0.4310      0.1274  C       1  LIG       0.0000
     7  O7        -1.0687     -0.2303      0.7986  O       1  LIG       0.0000
     8  C8        -2.0103     -0.6079      1.6103  C       1  LIG       0.0000
     9  O9        -2.1737     -1.7497      1.9710  O       1  LIG       0.0000
    10  H10       -0.0316     -0.8587     -2.0535  H       1  LIG       0.0000
    11  H11       -0.4141      0.7793     -2.6726  H       1  LIG       0.0000
    12  H12        1.2362      0.0780     -2.7802  H       1  LIG       0.0000
    13  H13       -0.1746      1.5876     -0.6475  H       1  LIG       0.0000
    14  H14        1.5246      1.2707     -0.7384  H       1  LIG       0.0000
    15  H15       -0.4309     -1.0892      0.2380  H       1  LIG       0.0000
    16  H16        1.5302     -1.5231      1.7348  H       1  LIG       0.0000
    17  H17        1.1634      0.6227      2.2595  H       1  LIG       0.0000
    18  H18       -0.1956     -0.1115     -0.8431  H       1  LIG       0.0000
    19  H19        0.1931      1.4058     -0.0926  H       1  LIG       0.0000
    20  H20       -2.6306      0.2365      1.8896  H       1  LIG       0.0000
@<TRIPOS>BOND
    1     5    17  1
    2     3    15  1
    3     4    16  1
    4     3     5  1
    5     4     5  1
    6     5     6  1
    7     3     4  1
    8     2     3  1
    9     6    19  1
   10     6     7  1
   11     7     8  1
   12     1    11  1
   13     6    18  1
   14     2    14  1
   15     8     9  2
   16     1     2  1
   17     2    13  1
   18     8    20  1
   19     1    10  1
   20     1    12  1
