@<TRIPOS>MOLECULE
generated_molecule
17 17 0 0 0
SMALL
NO_CHARGES

@<TRIPOS>ATOM
     1  O1        -1.6620     -0.7334      1.7602  O       1  LIG       0.0000
     2  C2        -0.8601     -1.0453      0.6884  C       1  LIG       0.0000
     3  C3         0.5558     -1.4104      0.1779  C       1  LIG       0.0000
     4  O4         0.5847     -0.9618     -1.1636  O       1  LIG       0.0000
     5  C5         0.2321      0.3891     -1.2674  C       1  LIG       0.0000
     6  C6         1.2893      1.3483     -0.8907  C       1  LIG       0.0000
     7  C7         2.1628      2.1103     -0.5728  C       1  LIG       0.0000
     8  C8        -0.9153      0.2153     -0.2243  C       1  LIG       0.0000
     9  O9        -0.8308      1.5593     -0.4535  O       1  LIG       0.0000
    10  H10       -1.8621     -1.3445      2.5081  H       1  LIG       0.0000
    11  H11       -1.2162     -2.1046      0.8740  H       1  LIG       0.0000
    12  H12        1.2922     -0.9270      0.8300  H       1  LIG       0.0000
    13  H13        0.7102     -2.4641      0.1153  H       1  LIG       0.0000
    14  H14       -0.0519      0.6222     -2.2957  H       1  LIG       0.0000
    15  H15        2.9302      2.7704     -0.2528  H       1  LIG       0.0000
    16  H16       -1.7949     -0.2659      0.0444  H       1  LIG       0.0000
    17  H17       -0.5640      2.2420      0.1226  H       1  LIG       0.0000
@<TRIPOS>BOND
    1     8    16  1
    2     8     9  1
    3     9    17  1
    4     2    11  1
    5     2     8  1
    6     5     8  1
    7     1    10  1
    8     1     2  1
    9     2     3  1
   10     5    14  1
   11     4     5  1
   12     5     6  1
   13     3    12  1
   14     3     4  1
   15     3    13  1
   16     6     7  3
   17     7    15  1
