@<TRIPOS>MOLECULE
generated_molecule
18 22 0 0 0
SMALL
NO_CHARGES

@<TRIPOS>ATOM
     1  C1         0.1305     -1.9873     -1.4406  C       1  LIG       0.0000
     2  C2        -0.4792     -1.3772     -0.1664  C       1  LIG       0.0000
     3  N3        -0.6318     -0.7097     -1.4487  N       1  LIG       0.0000
     4  C4        -0.5446      0.7690     -1.2117  C       1  LIG       0.0000
     5  C5        -0.6715      1.1584      0.2834  C       1  LIG       0.0000
     6  C6         0.9629      0.7209      0.5009  C       1  LIG       0.0000
     7  C7         0.6109      0.3924      1.8644  C       1  LIG       0.0000
     8  C8        -0.1082     -0.0957      0.6594  C       1  LIG       0.0000
     9  C9        -0.2038      1.4793      0.0738  C       1  LIG       0.0000
    10  H10        0.7268     -2.7492     -0.9638  H       1  LIG       0.0000
    11  H11        0.1124     -1.9909     -2.5325  H       1  LIG       0.0000
    12  H12       -1.0188     -2.2479      0.2754  H       1  LIG       0.0000
    13  H13       -0.4603      1.4629     -2.0490  H       1  LIG       0.0000
    14  H14       -1.4836      1.3899      0.9716  H       1  LIG       0.0000
    15  H15        1.9041      0.4632      0.0966  H       1  LIG       0.0000
    16  H16        0.4206      1.2428      2.4922  H       1  LIG       0.0000
    17  H17        1.0756     -0.4475      2.3989  H       1  LIG       0.0000
    18  H18       -0.3419      2.5267      0.1961  H       1  LIG       0.0000
@<TRIPOS>BOND
    1     6    15  1
    2     7    17  1
    3     6     7  1
    4     5     6  1
    5     6     9  1
    6     5    14  1
    7     7    16  1
    8     7     8  1
    9     5     8  1
   10     4     5  1
   11     8     9  1
   12     4     9  1
   13     9    18  1
   14     4    13  1
   15     2     8  1
   16     3     4  1
   17     1    11  1
   18     2     3  1
   19     1     2  1
   20     2    12  1
   21     1     3  1
   22     1    10  1
