@<TRIPOS>MOLECULE
generated_molecule
21 23 0 0 0
SMALL
NO_CHARGES

@<TRIPOS>ATOM
     1  C1         0.6588      0.9013      0.3333  C       1  LIG       0.0000
     2  C2        -0.8740      0.7590      0.5553  C       1  LIG       0.0000
     3  C3        -1.1025     -0.6901      1.0071  C       1  LIG       0.0000
     4  C4        -0.6005     -1.6798     -0.1067  C       1  LIG       0.0000
     5  C5        -0.7439     -1.0773     -1.4573  C       1  LIG       0.0000
     6  C6        -0.4062      0.2330     -1.5007  C       1  LIG       0.0000
     7  C7         0.4425      0.7957     -0.3739  C       1  LIG       0.0000
     8  C8         0.2197     -0.4895      0.3594  C       1  LIG       0.0000
     9  C9         1.5952     -0.2812      0.7849  C       1  LIG       0.0000
    10  H10        1.7605      0.9819      0.4575  H       1  LIG       0.0000
    11  H11        0.0548      1.5226     -0.2163  H       1  LIG       0.0000
    12  H12       -1.4216      1.2025      1.3849  H       1  LIG       0.0000
    13  H13       -1.3350      1.0334     -0.4032  H       1  LIG       0.0000
    14  H14       -1.6622     -1.2245      1.7660  H       1  LIG       0.0000
    15  H15       -0.6346     -2.7461      0.1724  H       1  LIG       0.0000
    16  H16       -1.1156     -1.7127     -2.2573  H       1  LIG       0.0000
    17  H17       -0.7030      0.8931     -2.2794  H       1  LIG       0.0000
    18  H18        1.5141      0.9517     -0.3076  H       1  LIG       0.0000
    19  H19        0.0196      1.8031     -0.0696  H       1  LIG       0.0000
    20  H20        2.1828     -0.0439      1.7330  H       1  LIG       0.0000
    21  H21        2.1512     -1.1323      0.4183  H       1  LIG       0.0000
@<TRIPOS>BOND
    1     1    11  1
    2     4    15  1
    3     1    10  1
    4     1     9  1
    5     1     2  1
    6     9    21  1
    7     2    12  1
    8     4     5  1
    9     4     8  1
   10     3     4  1
   11     8     9  1
   12     9    20  1
   13     2     3  1
   14     2    13  1
   15     5    16  1
   16     5     6  2
   17     3     8  1
   18     7     8  1
   19     3    14  1
   20     7    18  1
   21     6     7  1
   22     6    17  1
   23     7    19  1
