@<TRIPOS>MOLECULE
generated_molecule
18 18 0 0 0
SMALL
NO_CHARGES

@<TRIPOS>ATOM
     1  F1         2.3396      0.8747      1.0920  F       1  LIG       0.0000
     2  C2         1.5094     -0.1029      1.3011  C       1  LIG       0.0000
     3  F3         0.6335      0.3235      2.1461  F       1  LIG       0.0000
     4  F4         2.1055     -1.1446      1.8324  F       1  LIG       0.0000
     5  C5         0.8776     -0.5619     -0.0430  C       1  LIG       0.0000
     6  C6         0.2894      0.2508     -1.2409  C       1  LIG       0.0000
     7  C7        -0.8292      1.1495     -0.7143  C       1  LIG       0.0000
     8  C8        -1.5099      0.1352      0.2346  C       1  LIG       0.0000
     9  C9        -0.5670     -1.0678     -0.0704  C       1  LIG       0.0000
    10  H10        1.7688     -1.1377     -0.2584  H       1  LIG       0.0000
    11  H11        0.0970      1.0398     -1.9775  H       1  LIG       0.0000
    12  H12        0.8396     -0.5675     -1.6160  H       1  LIG       0.0000
    13  H13       -1.3284      1.9052     -0.0213  H       1  LIG       0.0000
    14  H14       -0.7076      1.7169     -1.6307  H       1  LIG       0.0000
    15  H15       -1.6728      0.8628      1.0711  H       1  LIG       0.0000
    16  H16       -2.4194     -0.4399      0.2313  H       1  LIG       0.0000
    17  H17       -0.8328     -1.7578      0.7163  H       1  LIG       0.0000
    18  H18       -0.5936     -1.4783     -1.0525  H       1  LIG       0.0000
@<TRIPOS>BOND
    1     2     4  1
    2     2     3  1
    3     1     2  1
    4     2     5  1
    5     6    12  1
    6     5    10  1
    7     6    11  1
    8     5     6  1
    9     5     9  1
   10     6     7  1
   11     9    17  1
   12     9    18  1
   13     8     9  1
   14     7    14  1
   15     7    13  1
   16     7     8  1
   17     8    16  1
   18     8    15  1
