@<TRIPOS>MOLECULE
generated_molecule
12 12 0 0 0
SMALL
NO_CHARGES

@<TRIPOS>ATOM
     1  O1         0.9243     -1.1923     -0.2888  O       1  LIG       0.0000
     2  C2         0.8390      0.0683     -0.5656  C       1  LIG       0.0000
     3  C3         2.0592     -0.1811     -1.2819  C       1  LIG       0.0000
     4  N4         3.1077     -0.3866     -1.8865  N       1  LIG       0.0000
     5  C5        -0.5091      0.3222      0.0766  C       1  LIG       0.0000
     6  N6        -1.4350      0.8699     -0.6584  N       1  LIG       0.0000
     7  O7        -2.5126      0.9227      0.1679  O       1  LIG       0.0000
     8  N8        -2.2310      0.4231      1.4058  N       1  LIG       0.0000
     9  C9        -0.9498      0.0643      1.3349  C       1  LIG       0.0000
    10  H10        0.3099     -1.6482      0.2665  H       1  LIG       0.0000
    11  H11        0.8339      1.0673     -0.7569  H       1  LIG       0.0000
    12  H12       -0.4364     -0.3297      2.1863  H       1  LIG       0.0000
@<TRIPOS>BOND
    1     1     2  1
    2     1    10  1
    3     2     3  1
    4     2     5  1
    5     2    11  1
    6     3     4  3
    7     5     6  ar
    8     5     9  ar
    9     6     7  ar
   10     7     8  ar
   11     8     9  ar
   12     9    12  1
