@<TRIPOS>MOLECULE
generated_molecule
19 20 0 0 0
SMALL
NO_CHARGES

@<TRIPOS>ATOM
     1  C1        -0.2660     -1.7490     -1.2846  C       1  LIG       0.0000
     2  C2        -0.9056     -0.5533     -0.6029  C       1  LIG       0.0000
     3  C3         0.5574     -0.3707     -0.0798  C       1  LIG       0.0000
     4  C4         1.3232      0.1117      1.1627  C       1  LIG       0.0000
     5  C5         0.6266      1.3516      1.6704  C       1  LIG       0.0000
     6  C6        -0.5450      1.6630      1.0969  C       1  LIG       0.0000
     7  C7        -1.1145      0.8776     -0.0958  C       1  LIG       0.0000
     8  C8        -0.1622      0.4598     -1.1862  C       1  LIG       0.0000
     9  O9        -0.0245      0.6692     -2.3552  O       1  LIG       0.0000
    10  H10       -0.8118     -1.9508     -2.2191  H       1  LIG       0.0000
    11  H11       -0.3320     -2.6153     -0.6320  H       1  LIG       0.0000
    12  H12        0.7591     -1.5473     -1.5177  H       1  LIG       0.0000
    13  H13       -1.9741     -0.5370     -0.6302  H       1  LIG       0.0000
    14  H14        1.2195     -1.2042     -0.1422  H       1  LIG       0.0000
    15  H15        2.4038      0.2164      0.9131  H       1  LIG       0.0000
    16  H16        1.4318     -0.5248      2.1014  H       1  LIG       0.0000
    17  H17        1.0751      1.9574      2.4614  H       1  LIG       0.0000
    18  H18       -1.0870      2.5084      1.5252  H       1  LIG       0.0000
    19  H19       -2.1738      1.2373     -0.1854  H       1  LIG       0.0000
@<TRIPOS>BOND
    1     4    15  1
    2     4    16  1
    3     3    14  1
    4     3     4  1
    5     4     5  1
    6     3     8  1
    7     2     3  1
    8     1    11  1
    9     5    17  1
   10     5     6  2
   11     8     9  2
   12     7     8  1
   13     1    10  1
   14     1     2  1
   15     2    13  1
   16     2     7  1
   17     1    12  1
   18     6     7  1
   19     6    18  1
   20     7    19  1
