@<TRIPOS>MOLECULE
generated_molecule
17 19 0 0 0
SMALL
NO_CHARGES

@<TRIPOS>ATOM
     1  O1         0.3389     -0.5562     -2.7326  O       1  LIG       0.0000
     2  C2         0.2911     -1.0653     -1.6076  C       1  LIG       0.0000
     3  N3         0.5081     -2.3897     -1.2130  N       1  LIG       0.0000
     4  C4        -0.4221     -2.0499     -0.1074  C       1  LIG       0.0000
     5  C5        -0.0070     -0.6050     -0.2240  C       1  LIG       0.0000
     6  C6        -0.6722      0.4934      0.6001  C       1  LIG       0.0000
     7  C7        -0.6116      2.0325      0.5699  C       1  LIG       0.0000
     8  C8         0.8885      1.8293      0.8098  C       1  LIG       0.0000
     9  N9         0.8066      0.4060      0.5192  N       1  LIG       0.0000
    10  H10        1.4143     -2.8500     -1.2267  H       1  LIG       0.0000
    11  H11       -1.4816     -2.1434     -0.2908  H       1  LIG       0.0000
    12  H12       -0.1447     -2.6493      0.7877  H       1  LIG       0.0000
    13  H13       -1.5419      0.0602      1.0921  H       1  LIG       0.0000
    14  H14       -0.8444      2.8420      1.3032  H       1  LIG       0.0000
    15  H15       -1.2763      2.2200     -0.2684  H       1  LIG       0.0000
    16  H16        1.0123      2.3362      1.8032  H       1  LIG       0.0000
    17  H17        1.7420      2.0894      0.1854  H       1  LIG       0.0000
@<TRIPOS>BOND
    1     8    16  1
    2     8    17  1
    3     4    11  1
    4     8     9  1
    5     7     8  1
    6     5     9  1
    7     6     9  1
    8     3    10  1
    9     3     4  1
   10     2     3  1
   11     1     2  2
   12     4     5  1
   13     4    12  1
   14     2     5  1
   15     5     6  1
   16     6     7  1
   17     6    13  1
   18     7    14  1
   19     7    15  1
