@<TRIPOS>MOLECULE
generated_molecule
17 19 0 0 0
SMALL
NO_CHARGES

@<TRIPOS>ATOM
     1  C1        -0.9030     -1.0295      1.7537  C       1  LIG       0.0000
     2  C2        -0.2990     -0.3137      0.5832  C       1  LIG       0.0000
     3  C3         0.4060      1.0600      0.6510  C       1  LIG       0.0000
     4  C4         1.1812      0.4920     -0.5249  C       1  LIG       0.0000
     5  N5         0.4545      1.0011     -1.6752  N       1  LIG       0.0000
     6  C6        -0.7143      0.1994     -1.8203  C       1  LIG       0.0000
     7  O7        -1.5075      0.2761     -2.7580  O       1  LIG       0.0000
     8  N8        -0.8648     -0.7262     -0.7339  N       1  LIG       0.0000
     9  C9         0.5739     -0.9367     -0.4694  C       1  LIG       0.0000
    10  H10       -0.1802     -1.7150      2.1953  H       1  LIG       0.0000
    11  H11       -1.7922     -1.6236      1.4823  H       1  LIG       0.0000
    12  H12       -1.2049     -0.2915      2.4900  H       1  LIG       0.0000
    13  H13       -0.3411      1.8586      0.5797  H       1  LIG       0.0000
    14  H14        1.1780      1.3517      1.3868  H       1  LIG       0.0000
    15  H15        2.2850      0.5086     -0.4274  H       1  LIG       0.0000
    16  H16        0.8106      1.8425     -2.0549  H       1  LIG       0.0000
    17  H17        0.9179     -1.9537     -0.6579  H       1  LIG       0.0000
@<TRIPOS>BOND
    1     3    13  1
    2     4    15  1
    3     3    14  1
    4     3     4  1
    5     2     3  1
    6     1    11  1
    7     4     9  1
    8     4     5  1
    9     2     9  1
   10     1     2  1
   11     2     8  1
   12     9    17  1
   13     8     9  1
   14     1    10  1
   15     1    12  1
   16     5    16  1
   17     5     6  1
   18     6     8  1
   19     6     7  2
