@<TRIPOS>MOLECULE
generated_molecule
16 15 0 0 0
SMALL
NO_CHARGES

@<TRIPOS>ATOM
     1  O1         0.6429     -0.0727     -2.4453  O       1  LIG       0.0000
     2  C2         0.1919     -1.1490     -1.7433  C       1  LIG       0.0000
     3  C3        -0.0707     -0.5739     -0.5125  C       1  LIG       0.0000
     4  C4        -0.2851     -0.0965      0.4541  C       1  LIG       0.0000
     5  C5        -0.4928      0.5516      1.6918  C       1  LIG       0.0000
     6  C6         0.6350      0.8452      0.6651  C       1  LIG       0.0000
     7  O7         0.3876      0.0442     -0.4264  O       1  LIG       0.0000
     8  C8        -1.5455     -0.1922      2.3577  C       1  LIG       0.0000
     9  N9        -2.4112     -0.7743      2.9350  N       1  LIG       0.0000
    10  H10        0.3644      0.7963     -2.0469  H       1  LIG       0.0000
    11  H11        0.8341     -1.9600     -1.4303  H       1  LIG       0.0000
    12  H12       -0.6839     -1.5268     -2.2806  H       1  LIG       0.0000
    13  H13       -0.5251      1.2781      2.4889  H       1  LIG       0.0000
    14  H14        0.5930      1.9013      0.3981  H       1  LIG       0.0000
    15  H15        1.5922      0.6105      1.1171  H       1  LIG       0.0000
    16  H16        0.7734      0.3182     -1.2225  H       1  LIG       0.0000
@<TRIPOS>BOND
    1     6    14  1
    2     5    13  1
    3     1    10  1
    4     1     2  1
    5     2    11  1
    6     6     7  1
    7     7    16  1
    8     5     6  1
    9     6    15  1
   10     4     5  1
   11     5     8  1
   12     3     4  3
   13     2     3  1
   14     2    12  1
   15     8     9  3
