@<TRIPOS>MOLECULE
generated_molecule
16 16 0 0 0
SMALL
NO_CHARGES

@<TRIPOS>ATOM
     1  O1        -1.7238      2.7076      1.2303  O       1  LIG       0.0000
     2  C2        -0.5807      2.3550      0.8475  C       1  LIG       0.0000
     3  C3         0.3180      1.1301      1.2295  C       1  LIG       0.0000
     4  C4         0.1143     -0.4141      1.1893  C       1  LIG       0.0000
     5  C5         0.0713     -0.9700     -0.2961  C       1  LIG       0.0000
     6  N6        -0.9200     -0.6609     -1.1028  N       1  LIG       0.0000
     7  N7        -0.6158     -1.2392     -2.3024  N       1  LIG       0.0000
     8  N8         0.5407     -1.9287     -2.2716  N       1  LIG       0.0000
     9  C9         0.9538     -1.7481     -1.0056  C       1  LIG       0.0000
    10  H10       -0.2357      3.0706      0.0473  H       1  LIG       0.0000
    11  H11        0.9105      1.6203      0.5014  H       1  LIG       0.0000
    12  H12        0.5228      1.0445      2.2544  H       1  LIG       0.0000
    13  H13       -0.5297     -0.2738      2.0517  H       1  LIG       0.0000
    14  H14        0.4916     -1.3754      1.4140  H       1  LIG       0.0000
    15  H15       -1.2041     -1.1309     -3.1079  H       1  LIG       0.0000
    16  H16        1.8868     -2.1870     -0.6789  H       1  LIG       0.0000
@<TRIPOS>BOND
    1     9    16  1
    2     8     9  ar
    3     5     9  ar
    4     4    13  1
    5     7     8  ar
    6     4     5  1
    7     5     6  ar
    8     4    14  1
    9     3     4  1
   10     6     7  ar
   11     7    15  1
   12     3    12  1
   13     1     2  2
   14     2     3  1
   15     3    11  1
   16     2    10  1
