@<TRIPOS>MOLECULE
generated_molecule
14 15 0 0 0
SMALL
NO_CHARGES

@<TRIPOS>ATOM
     1  O1        -1.1288     -1.6130      1.8775  O       1  LIG       0.0000
     2  C2        -0.8975     -0.8661      0.9275  C       1  LIG       0.0000
     3  O3        -1.6743      0.1315      0.4600  O       1  LIG       0.0000
     4  C4        -1.1759      0.8915     -0.6100  C       1  LIG       0.0000
     5  C5         0.2980      0.4181     -0.9481  C       1  LIG       0.0000
     6  O6         1.6184      0.5476     -0.5099  O       1  LIG       0.0000
     7  C7         1.4350     -0.1115      0.6709  C       1  LIG       0.0000
     8  C8         0.2625     -0.8491     -0.0596  C       1  LIG       0.0000
     9  H9        -2.0684      0.7134     -1.2052  H       1  LIG       0.0000
    10  H10       -0.9553      1.9461     -0.5832  H       1  LIG       0.0000
    11  H11        0.5405      0.7498     -1.9318  H       1  LIG       0.0000
    12  H12        2.1205      0.6795      0.9758  H       1  LIG       0.0000
    13  H13        1.2627     -0.8225      1.4884  H       1  LIG       0.0000
    14  H14        0.3626     -1.8154     -0.5521  H       1  LIG       0.0000
@<TRIPOS>BOND
    1     8    14  1
    2     4     9  1
    3     5    11  1
    4     2     8  1
    5     5     8  1
    6     7     8  1
    7     1     2  2
    8     2     3  1
    9     4     5  1
   10     5     6  1
   11     3     4  1
   12     4    10  1
   13     7    12  1
   14     6     7  1
   15     7    13  1
