@<TRIPOS>MOLECULE
generated_molecule
16 17 0 0 0
SMALL
NO_CHARGES

@<TRIPOS>ATOM
     1  O1         0.9249     -2.1174      0.4701  O       1  LIG       0.0000
     2  C2        -0.1174     -1.5206     -0.1986  C       1  LIG       0.0000
     3  C3        -0.2657     -0.9721     -1.6958  C       1  LIG       0.0000
     4  N4        -0.6602      0.3661     -1.6138  N       1  LIG       0.0000
     5  C5        -0.3354      0.8766     -0.4830  C       1  LIG       0.0000
     6  O6        -0.1519      2.1532     -0.2491  O       1  LIG       0.0000
     7  C7         0.1498      2.2972      1.0916  C       1  LIG       0.0000
     8  O8        -0.2520      1.0522      1.3026  O       1  LIG       0.0000
     9  C9        -0.1085     -0.1978      0.5276  C       1  LIG       0.0000
    10  H10        1.1684     -1.6747      1.3087  H       1  LIG       0.0000
    11  H11       -0.9241     -2.2901     -0.0938  H       1  LIG       0.0000
    12  H12        0.1749     -1.9664     -1.8257  H       1  LIG       0.0000
    13  H13       -0.5068     -0.5158     -2.6015  H       1  LIG       0.0000
    14  H14       -0.3134      3.2668      1.3147  H       1  LIG       0.0000
    15  H15        1.1052      2.2627      1.6624  H       1  LIG       0.0000
    16  H16        0.1122     -1.0198      1.0836  H       1  LIG       0.0000
@<TRIPOS>BOND
    1     2    11  1
    2     9    16  1
    3     8     9  1
    4     7     8  1
    5     2     9  1
    6     5     9  1
    7     7    14  1
    8     1     2  1
    9     2     3  1
   10     1    10  1
   11     7    15  1
   12     6     7  1
   13     3    12  1
   14     3    13  1
   15     3     4  1
   16     5     6  1
   17     4     5  1
