@<TRIPOS>MOLECULE
generated_molecule
21 22 0 0 0
SMALL
NO_CHARGES

@<TRIPOS>ATOM
     1  C1        -0.8226      1.5598     -0.9095  C       1  LIG       0.0000
     2  C2         0.6502      1.1717     -0.7092  C       1  LIG       0.0000
     3  C3         1.8627      0.8328      0.1166  C       1  LIG       0.0000
     4  C4         1.8326     -0.4171      0.6182  C       1  LIG       0.0000
     5  C5         0.9500     -1.2860     -0.2227  C       1  LIG       0.0000
     6  C6        -0.5914     -1.2323     -0.2789  C       1  LIG       0.0000
     7  C7        -1.2979     -1.1561      1.0440  C       1  LIG       0.0000
     8  O8        -1.2886      0.0199      1.7753  O       1  LIG       0.0000
     9  C9         0.2649     -0.2557     -1.1332  C       1  LIG       0.0000
    10  H10       -0.9726      1.9297     -1.9262  H       1  LIG       0.0000
    11  H11       -1.4749      0.7082     -0.7667  H       1  LIG       0.0000
    12  H12       -1.1106      2.3341     -0.1998  H       1  LIG       0.0000
    13  H13        1.1951      2.1182     -0.9561  H       1  LIG       0.0000
    14  H14        2.7253      1.4874      0.3377  H       1  LIG       0.0000
    15  H15        2.3957     -0.7997      1.5138  H       1  LIG       0.0000
    16  H16        1.2889     -2.3229     -0.3017  H       1  LIG       0.0000
    17  H17       -1.2113     -1.7335     -1.0099  H       1  LIG       0.0000
    18  H18       -0.8490     -1.8948      1.6863  H       1  LIG       0.0000
    19  H19       -2.3509     -1.2381      0.8494  H       1  LIG       0.0000
    20  H20       -1.2307      0.3540      2.6668  H       1  LIG       0.0000
    21  H21        0.0351     -0.1794     -2.1942  H       1  LIG       0.0000
@<TRIPOS>BOND
    1     3    14  1
    2     1    11  1
    3     3     4  2
    4     2     3  1
    5     4    15  1
    6     1    10  1
    7     1     2  1
    8     1    12  1
    9     4     5  1
   10     2    13  1
   11     2     9  1
   12     7    18  1
   13     7    19  1
   14     7     8  1
   15     6     7  1
   16     5     9  1
   17     5     6  1
   18     5    16  1
   19     8    20  1
   20     6     9  1
   21     9    21  1
   22     6    17  1
