@<TRIPOS>MOLECULE
generated_molecule
17 18 0 0 0
SMALL
NO_CHARGES

@<TRIPOS>ATOM
     1  O1        -1.8710      1.2765      1.8414  O       1  LIG       0.0000
     2  C2        -1.7620      1.3133      0.4547  C       1  LIG       0.0000
     3  C3        -0.6132      0.5025     -0.0892  C       1  LIG       0.0000
     4  C4         0.8320      0.6877      0.4000  C       1  LIG       0.0000
     5  C5         1.3528     -0.3767     -0.5796  C       1  LIG       0.0000
     6  C6         1.4793     -1.8471     -0.4561  C       1  LIG       0.0000
     7  C7         1.6056     -3.0321     -0.3412  C       1  LIG       0.0000
     8  C8         0.0167     -0.0825     -1.3150  C       1  LIG       0.0000
     9  O9        -1.2203     -0.5520     -0.8173  O       1  LIG       0.0000
    10  H10       -1.5707      0.5826      2.4269  H       1  LIG       0.0000
    11  H11       -1.5742      2.3237      0.2027  H       1  LIG       0.0000
    12  H12       -2.7277      0.9478      0.0854  H       1  LIG       0.0000
    13  H13        1.2916      1.6614      0.1976  H       1  LIG       0.0000
    14  H14        0.8677      0.5138      1.4764  H       1  LIG       0.0000
    15  H15        2.3011      0.0694     -0.8932  H       1  LIG       0.0000
    16  H16        1.6909     -4.0919     -0.2229  H       1  LIG       0.0000
    17  H17       -0.0985      0.1038     -2.3706  H       1  LIG       0.0000
@<TRIPOS>BOND
    1     1    10  1
    2     8     9  1
    3     3     9  1
    4     2    11  1
    5     8    17  1
    6     1     2  1
    7     3     8  1
    8     5     8  1
    9     2     3  1
   10     2    12  1
   11     7    16  1
   12     3     4  1
   13     6     7  3
   14     5     6  1
   15     4     5  1
   16     5    15  1
   17     4    14  1
   18     4    13  1
