@<TRIPOS>MOLECULE
generated_molecule
18 19 0 0 0
SMALL
NO_CHARGES

@<TRIPOS>ATOM
     1  C1         1.0925      1.3120     -0.1688  C       1  LIG       0.0000
     2  C2         0.5926     -0.1083      0.1427  C       1  LIG       0.0000
     3  N3        -0.4396      0.4446      0.8269  N       1  LIG       0.0000
     4  C4        -0.8020      0.7228     -0.3747  C       1  LIG       0.0000
     5  N5        -1.5967      1.7867     -0.4877  N       1  LIG       0.0000
     6  O6        -0.2684     -0.1559     -1.3177  O       1  LIG       0.0000
     7  C7         0.6922     -1.1498     -0.9847  C       1  LIG       0.0000
     8  C8         0.5332     -1.6344      0.4400  C       1  LIG       0.0000
     9  N9        -0.6006     -1.9718      1.2766  N       1  LIG       0.0000
    10  H10        1.0232      1.9004      0.7446  H       1  LIG       0.0000
    11  H11        2.1237      1.3544     -0.5405  H       1  LIG       0.0000
    12  H12        0.4695      1.8137     -0.9219  H       1  LIG       0.0000
    13  H13       -1.1507      2.6031     -0.1174  H       1  LIG       0.0000
    14  H14       -2.5549      1.5213     -0.4960  H       1  LIG       0.0000
    15  H15        1.3335     -1.8781     -1.4662  H       1  LIG       0.0000
    16  H16        1.2643     -2.4670      0.4759  H       1  LIG       0.0000
    17  H17       -1.1029     -1.1440      1.4063  H       1  LIG       0.0000
    18  H18       -0.6091     -2.9499      1.5626  H       1  LIG       0.0000
@<TRIPOS>BOND
    1     9    18  1
    2     9    17  1
    3     8     9  1
    4     1    11  1
    5     8    16  1
    6     2     8  1
    7     7     8  1
    8     2     3  1
    9     3     4  1
   10     1     2  1
   11     1    10  1
   12     1    12  1
   13     2     7  1
   14     5    13  1
   15     4     5  1
   16     4     6  1
   17     5    14  1
   18     6     7  1
   19     7    15  1
