@<TRIPOS>MOLECULE
generated_molecule
17 18 0 0 0
SMALL
NO_CHARGES

@<TRIPOS>ATOM
     1  O1        -1.4880      0.7375     -2.8300  O       1  LIG       0.0000
     2  C2        -1.1549      0.2124     -1.7603  C       1  LIG       0.0000
     3  C3        -1.7963      0.0886     -0.3941  C       1  LIG       0.0000
     4  C4        -0.5444      0.2688      0.5928  C       1  LIG       0.0000
     5  C5         0.7672      0.7833      1.3012  C       1  LIG       0.0000
     6  C6         1.9538      0.0768      0.6907  C       1  LIG       0.0000
     7  C7         1.5522     -0.8722     -0.1698  C       1  LIG       0.0000
     8  C8         0.0822     -0.8640     -0.2505  C       1  LIG       0.0000
     9  O9        -0.0196     -0.4792     -1.5780  O       1  LIG       0.0000
    10  H10       -2.2405     -0.1260      0.5408  H       1  LIG       0.0000
    11  H11       -2.6333      0.1285     -1.1576  H       1  LIG       0.0000
    12  H12       -1.1285      0.7674      1.3294  H       1  LIG       0.0000
    13  H13        1.3080      0.6306      2.2805  H       1  LIG       0.0000
    14  H14        0.4532      1.8126      1.3041  H       1  LIG       0.0000
    15  H15        3.0249      0.2202      0.8527  H       1  LIG       0.0000
    16  H16        2.2243     -1.5475     -0.7203  H       1  LIG       0.0000
    17  H17       -0.3604     -1.8378     -0.0315  H       1  LIG       0.0000
@<TRIPOS>BOND
    1     8    17  1
    2     1     2  2
    3     2     9  1
    4     8     9  1
    5     2     3  1
    6     4    12  1
    7     3    10  1
    8     4     8  1
    9     7     8  1
   10     3     4  1
   11     3    11  1
   12     4     5  1
   13     7    16  1
   14     6     7  2
   15     5    13  1
   16     5     6  1
   17     5    14  1
   18     6    15  1
