@<TRIPOS>MOLECULE
generated_molecule
18 19 0 0 0
SMALL
NO_CHARGES

@<TRIPOS>ATOM
     1  O1        -0.8153      1.6354     -2.7318  O       1  LIG       0.0000
     2  C2        -1.6546      1.3867     -1.8276  C       1  LIG       0.0000
     3  C3         2.3109     -1.0260      0.8212  C       1  LIG       0.0000
     4  C4         1.0646     -0.8258      1.7973  C       1  LIG       0.0000
     5  N5         0.1364     -1.3251      0.8076  N       1  LIG       0.0000
     6  C6        -0.8613     -1.2138     -0.1353  C       1  LIG       0.0000
     7  C7        -0.1949      0.0741      0.3435  C       1  LIG       0.0000
     8  C8         0.4103      0.5262      1.6952  C       1  LIG       0.0000
     9  O9         0.4213      1.5208      2.4140  O       1  LIG       0.0000
    10  H10       -0.7401      2.4155     -2.7432  H       1  LIG       0.0000
    11  H11       -1.8885      1.9612     -1.0787  H       1  LIG       0.0000
    12  H12       -2.2342      0.6942     -2.0964  H       1  LIG       0.0000
    13  H13        3.0864     -0.5405      1.0817  H       1  LIG       0.0000
    14  H14        2.5111     -1.7703      0.1196  H       1  LIG       0.0000
    15  H15        1.1707     -1.3647      2.7412  H       1  LIG       0.0000
    16  H16       -0.6642     -2.2682     -0.2727  H       1  LIG       0.0000
    17  H17       -1.7147     -0.7570     -0.5410  H       1  LIG       0.0000
    18  H18       -0.3441      0.8772     -0.3945  H       1  LIG       0.0000
@<TRIPOS>BOND
    1     2    11  1
    2     3    14  1
    3     4    15  1
    4     1    10  1
    5     1     2  1
    6     8     9  2
    7     2     3  1
    8     2    12  1
    9     3     4  1
   10     3    13  1
   11     4     8  1
   12     4     5  1
   13     7     8  1
   14     5     7  1
   15     5     6  1
   16     7    18  1
   17     6     7  1
   18     6    17  1
   19     6    16  1
