@<TRIPOS>MOLECULE
generated_molecule
18 19 0 0 0
SMALL
NO_CHARGES

@<TRIPOS>ATOM
     1  N1         1.1225     -0.2661     -1.5190  N       1  LIG       0.0000
     2  C2         0.6564      0.3471     -0.3857  C       1  LIG       0.0000
     3  C3        -0.5016      1.3772     -0.2655  C       1  LIG       0.0000
     4  C4        -0.6602      0.9107      1.1743  C       1  LIG       0.0000
     5  C5        -0.1347     -0.3945      0.7077  C       1  LIG       0.0000
     6  C6         0.3672     -1.7838      0.9950  C       1  LIG       0.0000
     7  N7        -1.0015     -1.3823      1.2957  N       1  LIG       0.0000
     8  C8        -0.4493      1.5913     -1.7560  C       1  LIG       0.0000
     9  N9        -0.4919      1.8141     -2.8623  N       1  LIG       0.0000
    10  H10        2.1074     -0.6509     -1.6098  H       1  LIG       0.0000
    11  H11        0.5207     -0.3716     -2.3378  H       1  LIG       0.0000
    12  H12        1.6517      0.6235     -0.1185  H       1  LIG       0.0000
    13  H13       -1.1745      2.1030      0.1297  H       1  LIG       0.0000
    14  H14       -0.5724      1.9581      1.5391  H       1  LIG       0.0000
    15  H15       -1.1244      0.3576      1.9789  H       1  LIG       0.0000
    16  H16        0.5484     -2.4735      0.1624  H       1  LIG       0.0000
    17  H17        0.9466     -1.9313      1.8813  H       1  LIG       0.0000
    18  H18       -1.8105     -1.8286      0.9904  H       1  LIG       0.0000
@<TRIPOS>BOND
    1     7    18  1
    2     1    10  1
    3     6     7  1
    4     5     7  1
    5     6    17  1
    6     2    12  1
    7     5     6  1
    8     6    16  1
    9     1    11  1
   10     1     2  1
   11     2     5  1
   12     2     3  1
   13     4     5  1
   14     4    14  1
   15     3     4  1
   16     4    15  1
   17     3     8  1
   18     3    13  1
   19     8     9  3
