@<TRIPOS>MOLECULE
generated_molecule
14 13 0 0 0
SMALL
NO_CHARGES

@<TRIPOS>ATOM
     1  O1         1.8097      1.2742      0.3224  O       1  LIG       0.0000
     2  C2         0.8339      1.5196      1.2091  C       1  LIG       0.0000
     3  C3        -0.5173      0.7316      1.1914  C       1  LIG       0.0000
     4  C4        -0.5727     -0.3071      0.1731  C       1  LIG       0.0000
     5  C5        -0.6825     -1.0807     -0.6981  C       1  LIG       0.0000
     6  C6        -0.8645     -1.9988     -1.8552  C       1  LIG       0.0000
     7  F7         0.1223     -2.7959     -2.1738  F       1  LIG       0.0000
     8  F8        -1.1240     -0.9621     -2.5764  F       1  LIG       0.0000
     9  F9        -1.7199     -2.9578     -1.7191  F       1  LIG       0.0000
    10  H10        2.6733      1.2213     -0.0650  H       1  LIG       0.0000
    11  H11        0.3807      2.4318      1.1269  H       1  LIG       0.0000
    12  H12        1.6049      1.2915      1.9450  H       1  LIG       0.0000
    13  H13       -0.5450      0.4303      2.2449  H       1  LIG       0.0000
    14  H14       -1.3988      1.2021      0.8748  H       1  LIG       0.0000
@<TRIPOS>BOND
    1     6     8  1
    2     2    11  1
    3     3    14  1
    4     5     6  1
    5     6     7  1
    6     6     9  1
    7     4     5  3
    8     1     2  1
    9     2     3  1
   10     2    12  1
   11     3     4  1
   12     1    10  1
   13     3    13  1
