@<TRIPOS>MOLECULE
generated_molecule
15 15 0 0 0
SMALL
NO_CHARGES

@<TRIPOS>ATOM
     1  C1         1.9346     -0.6238     -1.7315  C       1  LIG       0.0000
     2  C2         1.0656     -0.0985     -0.6419  C       1  LIG       0.0000
     3  N3         1.1450      1.0017      0.0726  N       1  LIG       0.0000
     4  C4        -0.0028      0.9894      0.7968  C       1  LIG       0.0000
     5  O5        -0.3808      1.9482      1.6767  O       1  LIG       0.0000
     6  C6        -0.7551     -0.0957      0.4922  C       1  LIG       0.0000
     7  C7        -2.1431     -0.4923      0.7747  C       1  LIG       0.0000
     8  O8        -0.0039     -0.8177     -0.3564  O       1  LIG       0.0000
     9  H9         2.9302     -0.1998     -1.6417  H       1  LIG       0.0000
    10  H10        2.0043     -1.7105     -1.6819  H       1  LIG       0.0000
    11  H11        1.5191     -0.3632     -2.6883  H       1  LIG       0.0000
    12  H12        0.1400      2.2449      2.4052  H       1  LIG       0.0000
    13  H13       -2.4797     -1.2365      0.0521  H       1  LIG       0.0000
    14  H14       -2.1981     -0.9065      1.7852  H       1  LIG       0.0000
    15  H15       -2.7754      0.3601      0.6864  H       1  LIG       0.0000
@<TRIPOS>BOND
    1     5    12  1
    2     4     5  1
    3     3     4  ar
    4     2     3  ar
    5     1    10  1
    6     4     6  ar
    7     1     2  1
    8     2     8  ar
    9     1     9  1
   10     1    11  1
   11     6     8  ar
   12     6     7  1
   13     7    15  1
   14     7    13  1
   15     7    14  1
