@<TRIPOS>MOLECULE
generated_molecule
22 22 0 0 0
SMALL
NO_CHARGES

@<TRIPOS>ATOM
     1  C1        -0.4740      1.9352      1.7400  C       1  LIG       0.0000
     2  N2        -0.2660      0.6642      1.0461  N       1  LIG       0.0000
     3  C3        -1.3013     -0.4036      1.0243  C       1  LIG       0.0000
     4  C4        -0.9703     -1.5983      0.0440  C       1  LIG       0.0000
     5  C5         0.2585     -1.5746     -1.0274  C       1  LIG       0.0000
     6  C6         1.1519     -0.5038     -1.7793  C       1  LIG       0.0000
     7  C7         0.9291      0.9249     -1.1409  C       1  LIG       0.0000
     8  C8         0.9057      0.4894      0.3206  C       1  LIG       0.0000
     9  O9         1.9067      0.0178      0.7900  O       1  LIG       0.0000
    10  H10       -1.1140      1.7734      2.6130  H       1  LIG       0.0000
    11  H11        0.4775      2.3615      2.0561  H       1  LIG       0.0000
    12  H12       -0.9600      2.6839      1.0935  H       1  LIG       0.0000
    13  H13       -1.7600      0.5326      1.3274  H       1  LIG       0.0000
    14  H14       -1.8843     -1.1882      1.4702  H       1  LIG       0.0000
    15  H15       -0.6228     -2.5663      0.3350  H       1  LIG       0.0000
    16  H16       -2.0285     -1.5688     -0.1515  H       1  LIG       0.0000
    17  H17       -0.1845     -1.9619     -1.8829  H       1  LIG       0.0000
    18  H18        1.0098     -1.9753     -0.4235  H       1  LIG       0.0000
    19  H19        1.4001     -1.3980     -2.2790  H       1  LIG       0.0000
    20  H20        1.7869      0.2679     -2.3199  H       1  LIG       0.0000
    21  H21        0.0289      1.5381     -1.2480  H       1  LIG       0.0000
    22  H22        1.7105      1.5499     -1.6078  H       1  LIG       0.0000
@<TRIPOS>BOND
    1     5    18  1
    2     4    16  1
    3     6    20  1
    4     4     5  1
    5     5     6  1
    6     5    17  1
    7     4    15  1
    8     6    19  1
    9     3     4  1
   10     6     7  1
   11     1    11  1
   12     2     3  1
   13     3    14  1
   14     3    13  1
   15     7     8  1
   16     7    22  1
   17     7    21  1
   18     1     2  1
   19     2     8  1
   20     1    10  1
   21     1    12  1
   22     8     9  2
