@<TRIPOS>MOLECULE
generated_molecule
16 16 0 0 0
SMALL
NO_CHARGES

@<TRIPOS>ATOM
     1  C1         0.8808     -0.4575      2.5619  C       1  LIG       0.0000
     2  O2         0.6046     -1.4010      1.5342  O       1  LIG       0.0000
     3  C3         0.0900     -0.8706      0.4270  C       1  LIG       0.0000
     4  N4         0.5765      0.2810     -0.0077  N       1  LIG       0.0000
     5  N5        -0.1745      0.4565     -1.0662  N       1  LIG       0.0000
     6  C6         0.0548      1.6579     -1.7967  C       1  LIG       0.0000
     7  C7        -1.1162     -0.5692     -1.3373  C       1  LIG       0.0000
     8  O8        -1.9734     -0.6135     -2.2280  O       1  LIG       0.0000
     9  N9        -0.8592     -1.4725     -0.3209  N       1  LIG       0.0000
    10  H10        0.0117     -0.5716      3.1261  H       1  LIG       0.0000
    11  H11        0.9189      0.6914      2.3647  H       1  LIG       0.0000
    12  H12        1.8540     -0.6075      2.8560  H       1  LIG       0.0000
    13  H13        0.3451      1.4271     -2.8151  H       1  LIG       0.0000
    14  H14        0.8661      2.1929     -1.3131  H       1  LIG       0.0000
    15  H15       -0.8285      2.2860     -1.7824  H       1  LIG       0.0000
    16  H16       -1.2507     -2.4294     -0.2026  H       1  LIG       0.0000
@<TRIPOS>BOND
    1     6    13  1
    2     6    15  1
    3     6    14  1
    4     5     6  1
    5     7     8  2
    6     5     7  ar
    7     4     5  ar
    8     7     9  ar
    9     3     4  ar
   10     3     9  ar
   11     9    16  1
   12     2     3  1
   13     1    11  1
   14     1     2  1
   15     1    10  1
   16     1    12  1
