@<TRIPOS>MOLECULE
generated_molecule
14 14 0 0 0
SMALL
NO_CHARGES

@<TRIPOS>ATOM
     1  N1        -1.0054      0.0896     -2.8117  N       1  LIG       0.0000
     2  C2        -0.1110      0.0891     -1.8167  C       1  LIG       0.0000
     3  O3         0.4976     -0.9416     -1.2592  O       1  LIG       0.0000
     4  C4         0.3889     -0.7711      0.0612  C       1  LIG       0.0000
     5  C5         1.2309     -0.8905      1.1656  C       1  LIG       0.0000
     6  C6         0.7615      0.0884      1.9327  C       1  LIG       0.0000
     7  C7        -0.4417      0.5885      1.2921  C       1  LIG       0.0000
     8  N8        -0.7383     -0.0934      0.2248  N       1  LIG       0.0000
     9  H9        -1.3231      0.9752     -2.9085  H       1  LIG       0.0000
    10  H10        0.1753      1.0317     -1.3308  H       1  LIG       0.0000
    11  H11        1.9492     -1.7356      1.4143  H       1  LIG       0.0000
    12  H12        1.1905      0.5288      2.8373  H       1  LIG       0.0000
    13  H13       -0.9468      1.4847      1.4373  H       1  LIG       0.0000
    14  H14       -1.6277     -0.4438     -0.2384  H       1  LIG       0.0000
@<TRIPOS>BOND
    1     2    10  1
    2     6    12  1
    3     1     9  1
    4     5    11  1
    5     5     6  ar
    6     6     7  ar
    7     4     5  ar
    8     1     2  1
    9     2     3  1
   10     7    13  1
   11     7     8  ar
   12     4     8  ar
   13     3     4  1
   14     8    14  1
