@<TRIPOS>MOLECULE
generated_molecule
19 21 0 0 0
SMALL
NO_CHARGES

@<TRIPOS>ATOM
     1  C1        -1.2079      0.8544     -0.7839  C       1  LIG       0.0000
     2  C2         0.2463      0.5854     -1.3139  C       1  LIG       0.0000
     3  C3         1.4195     -0.3789     -0.7441  C       1  LIG       0.0000
     4  O4         1.3189     -1.6197     -0.0955  O       1  LIG       0.0000
     5  C5         0.5062     -1.1073      0.9187  C       1  LIG       0.0000
     6  C6        -0.3091      0.2022      1.1146  C       1  LIG       0.0000
     7  C7        -1.6718     -0.1396      0.3968  C       1  LIG       0.0000
     8  O8         0.9480      0.6619      1.4362  O       1  LIG       0.0000
     9  C9         1.7426     -0.2599      0.7609  C       1  LIG       0.0000
    10  H10       -1.5764      1.7322     -0.2044  H       1  LIG       0.0000
    11  H11       -1.8593      0.8028     -1.6488  H       1  LIG       0.0000
    12  H12        1.2423      0.8552     -1.5530  H       1  LIG       0.0000
    13  H13       -0.5208      0.8685     -2.0127  H       1  LIG       0.0000
    14  H14        2.1873     -0.5386     -1.4872  H       1  LIG       0.0000
    15  H15        0.1308     -2.0231      1.3621  H       1  LIG       0.0000
    16  H16       -0.7784      1.0526      1.5277  H       1  LIG       0.0000
    17  H17       -1.8284     -1.0700      0.8804  H       1  LIG       0.0000
    18  H18       -2.7569     -0.1013      0.2967  H       1  LIG       0.0000
    19  H19        2.7669     -0.3769      1.1494  H       1  LIG       0.0000
@<TRIPOS>BOND
    1     1    11  1
    2     2    12  1
    3     7    18  1
    4     2    13  1
    5     1     2  1
    6     1     7  1
    7     1    10  1
    8     2     3  1
    9     7    17  1
   10     6     7  1
   11     6     8  1
   12     8     9  1
   13     6    16  1
   14     5     6  1
   15     3    14  1
   16     3     9  1
   17     3     4  1
   18     9    19  1
   19     5     9  1
   20     4     5  1
   21     5    15  1
