@<TRIPOS>MOLECULE
generated_molecule
17 18 0 0 0
SMALL
NO_CHARGES

@<TRIPOS>ATOM
     1  C1         1.1267     -1.3103      0.5270  C       1  LIG       0.0000
     2  N2        -0.2877     -0.9756      0.7480  N       1  LIG       0.0000
     3  C3        -1.6270     -0.3662      0.8425  C       1  LIG       0.0000
     4  C4        -1.1040     -0.4094     -0.6008  C       1  LIG       0.0000
     5  O5        -0.8704      0.5743     -1.5631  O       1  LIG       0.0000
     6  C6         0.2519      1.2742     -1.1073  C       1  LIG       0.0000
     7  C7         0.6695      2.3292     -0.1453  C       1  LIG       0.0000
     8  N8         0.9752      3.1475      0.5746  N       1  LIG       0.0000
     9  C9         0.2997      0.0056     -0.2143  C       1  LIG       0.0000
    10  H10        1.6647     -0.7006     -0.2693  H       1  LIG       0.0000
    11  H11        1.2477     -2.3354      0.1741  H       1  LIG       0.0000
    12  H12        1.5891     -1.1137      1.4651  H       1  LIG       0.0000
    13  H13       -2.5528      0.1542      0.6306  H       1  LIG       0.0000
    14  H14       -1.7072     -0.5652      1.9124  H       1  LIG       0.0000
    15  H15       -1.6839     -1.2756     -0.9336  H       1  LIG       0.0000
    16  H16        0.6501      1.5883     -2.0809  H       1  LIG       0.0000
    17  H17        1.3584     -0.0214      0.0401  H       1  LIG       0.0000
@<TRIPOS>BOND
    1     7     8  3
    2     1    11  1
    3     3    14  1
    4     6     7  1
    5     1     2  1
    6     1    10  1
    7     1    12  1
    8     2     3  1
    9     2     9  1
   10     3    13  1
   11     3     4  1
   12     5     6  1
   13     4     5  1
   14     6     9  1
   15     6    16  1
   16     4     9  1
   17     4    15  1
   18     9    17  1
