@<TRIPOS>MOLECULE
generated_molecule
20 22 0 0 0
SMALL
NO_CHARGES

@<TRIPOS>ATOM
     1  C1        -0.0301      1.1994      0.9162  C       1  LIG       0.0000
     2  C2        -0.5110      0.1691     -0.1556  C       1  LIG       0.0000
     3  C3        -0.0391     -1.2395     -0.9851  C       1  LIG       0.0000
     4  O4         0.2564     -2.3200     -0.2668  O       1  LIG       0.0000
     5  C5         0.0021     -1.1154      0.2551  C       1  LIG       0.0000
     6  C6        -0.1900     -1.7794      1.5996  C       1  LIG       0.0000
     7  C7         0.1600      0.1949     -0.7196  C       1  LIG       0.0000
     8  C8         0.8847      1.4000     -1.2585  C       1  LIG       0.0000
     9  N9        -0.5149      1.3443     -1.2638  N       1  LIG       0.0000
    10  H10        0.6157      1.9137      0.4407  H       1  LIG       0.0000
    11  H11       -0.9002      1.7101      1.3423  H       1  LIG       0.0000
    12  H12        0.5123      0.7750      1.7805  H       1  LIG       0.0000
    13  H13       -1.4343      0.4287     -0.5979  H       1  LIG       0.0000
    14  H14        0.1084     -1.8448     -1.8499  H       1  LIG       0.0000
    15  H15       -0.3914     -1.0676      2.3960  H       1  LIG       0.0000
    16  H16        0.7138     -2.3355      1.8413  H       1  LIG       0.0000
    17  H17       -1.0372     -2.4796      1.5842  H       1  LIG       0.0000
    18  H18        1.9374      1.1623     -1.1577  H       1  LIG       0.0000
    19  H19        0.7813      2.4459     -1.7012  H       1  LIG       0.0000
    20  H20       -0.9238      1.4382     -2.1998  H       1  LIG       0.0000
@<TRIPOS>BOND
    1     3    14  1
    2     8    19  1
    3     1    11  1
    4     2     3  1
    5     3     7  1
    6     3     4  1
    7     2    13  1
    8     9    20  1
    9     7     8  1
   10     8     9  1
   11     8    18  1
   12     1     2  1
   13     2     5  1
   14     1    10  1
   15     1    12  1
   16     7     9  1
   17     5     7  1
   18     4     5  1
   19     5     6  1
   20     6    16  1
   21     6    15  1
   22     6    17  1
