@<TRIPOS>MOLECULE
generated_molecule
19 21 0 0 0
SMALL
NO_CHARGES

@<TRIPOS>ATOM
     1  C1        -0.5370     -0.5872     -2.2044  C       1  LIG       0.0000
     2  C2        -0.0627      0.0549     -0.9052  C       1  LIG       0.0000
     3  C3         1.3413      0.5555     -0.9209  C       1  LIG       0.0000
     4  C4         1.6769      0.2205      0.3699  C       1  LIG       0.0000
     5  C5         0.3685     -0.0987      1.0675  C       1  LIG       0.0000
     6  O6         0.0474     -0.5104      2.2913  O       1  LIG       0.0000
     7  C7        -0.2816      1.0136      0.2789  C       1  LIG       0.0000
     8  C8        -1.0306      0.2750      1.4409  C       1  LIG       0.0000
     9  C9        -0.8151     -0.6579      0.2625  C       1  LIG       0.0000
    10  H10       -0.2532     -1.6467     -2.2768  H       1  LIG       0.0000
    11  H11       -1.6223     -0.5324     -2.2756  H       1  LIG       0.0000
    12  H12       -0.0887     -0.0774     -3.0522  H       1  LIG       0.0000
    13  H13        1.9015      1.0321     -1.7313  H       1  LIG       0.0000
    14  H14        2.6862      0.1910      0.7612  H       1  LIG       0.0000
    15  H15        0.7522     -0.3993      2.9132  H       1  LIG       0.0000
    16  H16       -0.1273      2.0658      0.0407  H       1  LIG       0.0000
    17  H17       -0.7687     -0.4135      2.2383  H       1  LIG       0.0000
    18  H18       -1.7625      1.0400      1.6723  H       1  LIG       0.0000
    19  H19       -1.4243     -1.5248      0.0296  H       1  LIG       0.0000
@<TRIPOS>BOND
    1     3    13  1
    2     4    14  1
    3     3     4  2
    4     2     3  1
    5     4     5  1
    6     1    11  1
    7     1    10  1
    8     1     2  1
    9     1    12  1
   10     2     9  1
   11     2     7  1
   12     9    19  1
   13     5     9  1
   14     5     6  1
   15     5     7  1
   16     8     9  1
   17     6    15  1
   18     7    16  1
   19     7     8  1
   20     8    18  1
   21     8    17  1
