@<TRIPOS>MOLECULE
generated_molecule
18 20 0 0 0
SMALL
NO_CHARGES

@<TRIPOS>ATOM
     1  C1        -1.6542      0.9766      0.1990  C       1  LIG       0.0000
     2  C2        -1.6630     -0.3271     -0.5826  C       1  LIG       0.0000
     3  C3        -0.2174     -0.3879     -0.1251  C       1  LIG       0.0000
     4  C4         0.6700     -0.1778      1.0759  C       1  LIG       0.0000
     5  C5         1.2294      0.3951     -0.2253  C       1  LIG       0.0000
     6  C6         1.7433     -1.0740     -0.2725  C       1  LIG       0.0000
     7  O7         0.4403     -1.5570     -0.4633  O       1  LIG       0.0000
     8  C8        -0.1794      1.1079     -0.2789  C       1  LIG       0.0000
     9  H9        -2.6985      1.2433     -0.0934  H       1  LIG       0.0000
    10  H10       -1.4756      1.3957      1.1972  H       1  LIG       0.0000
    11  H11       -2.5503     -0.8523     -0.1740  H       1  LIG       0.0000
    12  H12       -1.5488     -0.5790     -1.6285  H       1  LIG       0.0000
    13  H13        1.6486     -0.4107      1.5229  H       1  LIG       0.0000
    14  H14       -0.1391     -0.1783      1.7673  H       1  LIG       0.0000
    15  H15        1.8959      1.0595     -0.8139  H       1  LIG       0.0000
    16  H16        1.9850     -1.7777      0.5387  H       1  LIG       0.0000
    17  H17        2.6010     -0.9610     -0.9640  H       1  LIG       0.0000
    18  H18       -0.0872      2.1048     -0.6794  H       1  LIG       0.0000
@<TRIPOS>BOND
    1     1    10  1
    2     8    18  1
    3     2    11  1
    4     1     8  1
    5     1     2  1
    6     1     9  1
    7     3     8  1
    8     5     8  1
    9     2    12  1
   10     2     3  1
   11     4    13  1
   12     3     4  1
   13     3     7  1
   14     5    15  1
   15     4     5  1
   16     5     6  1
   17     4    14  1
   18     6     7  1
   19     6    16  1
   20     6    17  1
