@<TRIPOS>MOLECULE
generated_molecule
8 8 0 0 0
SMALL
NO_CHARGES

@<TRIPOS>ATOM
     1  O1         0.2641      1.4919     -1.3357  O       1  LIG       0.0000
     2  C2         0.0968      0.5616     -0.5031  C       1  LIG       0.0000
     3  N3         1.0270     -0.1464      0.2299  N       1  LIG       0.0000
     4  N4         0.4739     -1.0969      0.9881  N       1  LIG       0.0000
     5  N5        -0.8216     -1.0253      0.7811  N       1  LIG       0.0000
     6  N6        -1.0531     -0.0380     -0.0919  N       1  LIG       0.0000
     7  H7         2.0136      0.0157      0.2704  H       1  LIG       0.0000
     8  H8        -2.0008      0.2374     -0.3388  H       1  LIG       0.0000
@<TRIPOS>BOND
    1     1     2  2
    2     2     3  ar
    3     2     6  ar
    4     3     4  ar
    5     3     7  1
    6     4     5  ar
    7     5     6  ar
    8     6     8  1
