@<TRIPOS>MOLECULE
generated_molecule
18 20 0 0 0
SMALL
NO_CHARGES

@<TRIPOS>ATOM
     1  O1        -1.3420     -2.2362      1.5047  O       1  LIG       0.0000
     2  C2        -0.8897     -1.5575      0.5966  C       1  LIG       0.0000
     3  C3        -0.3882     -1.5555     -0.8134  C       1  LIG       0.0000
     4  N4        -1.4511     -0.4953     -0.8566  N       1  LIG       0.0000
     5  C5        -0.4949     -0.2030      0.1540  C       1  LIG       0.0000
     6  C6        -0.2261      1.3091      0.2480  C       1  LIG       0.0000
     7  C7         0.8733      1.4611      1.2769  C       1  LIG       0.0000
     8  C8         0.9834      0.1714      0.4625  C       1  LIG       0.0000
     9  C9         0.6631      0.7763     -0.8943  C       1  LIG       0.0000
    10  H10        0.6425     -1.7278     -0.5703  H       1  LIG       0.0000
    11  H11       -0.6426     -1.8721     -1.8491  H       1  LIG       0.0000
    12  H12       -2.3763     -0.8263     -0.9972  H       1  LIG       0.0000
    13  H13       -1.0132      2.0220      0.4151  H       1  LIG       0.0000
    14  H14        0.9371      2.5475      1.2641  H       1  LIG       0.0000
    15  H15        1.3122      1.1332      2.2357  H       1  LIG       0.0000
    16  H16        1.7893     -0.5111      0.7446  H       1  LIG       0.0000
    17  H17        1.6359      1.1167     -1.2199  H       1  LIG       0.0000
    18  H18       -0.0128      0.4476     -1.7013  H       1  LIG       0.0000
@<TRIPOS>BOND
    1     8    16  1
    2     7     8  1
    3     8     9  1
    4     5     8  1
    5     7    14  1
    6     7    15  1
    7     6     7  1
    8     3    10  1
    9     9    18  1
   10     1     2  2
   11     9    17  1
   12     6     9  1
   13     4    12  1
   14     2     5  1
   15     2     3  1
   16     4     5  1
   17     5     6  1
   18     3     4  1
   19     3    11  1
   20     6    13  1
