@<TRIPOS>MOLECULE
generated_molecule
16 15 0 0 0
SMALL
NO_CHARGES

@<TRIPOS>ATOM
     1  N1         2.0024     -1.4255      0.3900  N       1  LIG       0.0000
     2  C2         0.9127     -1.5511     -0.2800  C       1  LIG       0.0000
     3  O3        -0.1549     -0.6998     -0.2290  O       1  LIG       0.0000
     4  C4        -1.4531     -0.5905     -0.4898  C       1  LIG       0.0000
     5  C5        -2.0543      0.8479     -0.2934  C       1  LIG       0.0000
     6  C6        -0.7155      1.2219      0.1420  C       1  LIG       0.0000
     7  C7         0.3924      1.4294      0.4756  C       1  LIG       0.0000
     8  C8         1.7354      1.5951      0.9079  C       1  LIG       0.0000
     9  O9         2.6537      1.8049      0.1569  O       1  LIG       0.0000
    10  H10        2.8074     -2.0872      0.3217  H       1  LIG       0.0000
    11  H11        0.9007     -2.4064     -0.9203  H       1  LIG       0.0000
    12  H12       -1.0440     -1.2109     -1.2278  H       1  LIG       0.0000
    13  H13       -2.4853     -0.7824     -0.1768  H       1  LIG       0.0000
    14  H14       -2.6644      1.4499      0.4232  H       1  LIG       0.0000
    15  H15       -2.6733      0.9337     -1.1881  H       1  LIG       0.0000
    16  H16        1.8401      1.4710      1.9881  H       1  LIG       0.0000
@<TRIPOS>BOND
    1     4    12  1
    2     5    15  1
    3     8    16  1
    4     8     9  2
    5     7     8  1
    6     2    11  1
    7     6     7  3
    8     3     4  1
    9     4     5  1
   10     4    13  1
   11     5     6  1
   12     2     3  1
   13     1     2  1
   14     1    10  1
   15     5    14  1
