@<TRIPOS>MOLECULE
generated_molecule
22 23 0 0 0
SMALL
NO_CHARGES

@<TRIPOS>ATOM
     1  C1         1.5666      0.6955     -0.7967  C       1  LIG       0.0000
     2  C2         0.1158      0.5240     -0.3921  C       1  LIG       0.0000
     3  C3        -0.3464     -0.7520     -1.0443  C       1  LIG       0.0000
     4  C4        -1.3645     -0.6781     -2.1781  C       1  LIG       0.0000
     5  C5         0.3507     -1.6206     -0.3216  C       1  LIG       0.0000
     6  C6         0.7167     -0.9374      1.0053  C       1  LIG       0.0000
     7  N7        -0.2701     -0.6978      2.1523  N       1  LIG       0.0000
     8  C8        -0.0845      0.3252      1.1448  C       1  LIG       0.0000
     9  C9        -0.6077      1.5271      1.8984  C       1  LIG       0.0000
    10  H10        2.1123      1.1781      0.0057  H       1  LIG       0.0000
    11  H11        2.0500     -0.2765     -0.9746  H       1  LIG       0.0000
    12  H12        1.5743      1.2701     -1.6932  H       1  LIG       0.0000
    13  H13       -0.5860      1.3254     -0.5787  H       1  LIG       0.0000
    14  H14       -1.3236     -1.6047     -2.7265  H       1  LIG       0.0000
    15  H15       -1.1672      0.1517     -2.8667  H       1  LIG       0.0000
    16  H16       -2.3604     -0.5148     -1.7897  H       1  LIG       0.0000
    17  H17        0.6592     -2.6284     -0.6454  H       1  LIG       0.0000
    18  H18        1.7144     -1.1796      1.3762  H       1  LIG       0.0000
    19  H19       -0.5133     -1.6358      2.1797  H       1  LIG       0.0000
    20  H20       -1.5961      1.8517      1.5190  H       1  LIG       0.0000
    21  H21        0.0891      2.3562      1.7701  H       1  LIG       0.0000
    22  H22       -0.7293      1.3206      2.9561  H       1  LIG       0.0000
@<TRIPOS>BOND
    1     4    15  1
    2     4    16  1
    3     4    14  1
    4     3     4  1
    5     5    17  1
    6     3     5  2
    7     2     3  1
    8     1    11  1
    9     5     6  1
   10     2    13  1
   11     1     2  1
   12     2     8  1
   13     1    10  1
   14     1    12  1
   15     6    18  1
   16     6     8  1
   17     6     7  1
   18     7     8  1
   19     8     9  1
   20     7    19  1
   21     9    21  1
   22     9    20  1
   23     9    22  1
