@<TRIPOS>MOLECULE
generated_molecule
18 21 0 0 0
SMALL
NO_CHARGES

@<TRIPOS>ATOM
     1  O1         2.3440      0.0141      0.0107  O       1  LIG       0.0000
     2  C2         1.0293      0.1059      0.1313  C       1  LIG       0.0000
     3  C3         0.1953      1.3678      0.4021  C       1  LIG       0.0000
     4  C4         0.6450      0.1975     -0.2358  C       1  LIG       0.0000
     5  C5        -0.6482     -0.1310     -1.1081  C       1  LIG       0.0000
     6  C6        -1.9515     -0.0437     -0.3509  C       1  LIG       0.0000
     7  N7        -1.1284     -0.8938      0.5757  N       1  LIG       0.0000
     8  C8         0.0941     -1.1373     -0.2591  C       1  LIG       0.0000
     9  C9         0.2038     -0.4833      1.1399  C       1  LIG       0.0000
    10  H10        2.9061     -0.5975      0.5336  H       1  LIG       0.0000
    11  H11       -0.1149      2.1178     -0.3145  H       1  LIG       0.0000
    12  H12       -0.0672      1.6338      1.4369  H       1  LIG       0.0000
    13  H13        1.6715      0.3844     -0.5958  H       1  LIG       0.0000
    14  H14       -0.8736     -0.1293     -2.1742  H       1  LIG       0.0000
    15  H15       -2.4503      0.4755     -1.2173  H       1  LIG       0.0000
    16  H16       -2.7656     -0.0140      0.4097  H       1  LIG       0.0000
    17  H17        0.2881     -2.2062     -0.5169  H       1  LIG       0.0000
    18  H18        0.6223     -0.6606      2.1329  H       1  LIG       0.0000
@<TRIPOS>BOND
    1     3    11  1
    2     3    12  1
    3     3     4  1
    4     2     3  1
    5     4    13  1
    6     4     9  1
    7     4     5  1
    8     9    18  1
    9     1     2  1
   10     1    10  1
   11     2     9  1
   12     2     8  1
   13     7     9  1
   14     5    14  1
   15     5     8  1
   16     5     6  1
   17     7     8  1
   18     8    17  1
   19     6    15  1
   20     6     7  1
   21     6    16  1
