@<TRIPOS>MOLECULE
generated_molecule
14 16 0 0 0
SMALL
NO_CHARGES

@<TRIPOS>ATOM
     1  O1        -1.4423      0.6134      2.4660  O       1  LIG       0.0000
     2  C2        -1.1292      0.7254      1.2996  C       1  LIG       0.0000
     3  N3        -1.9859      0.8189      0.1269  N       1  LIG       0.0000
     4  N4        -1.3777      0.6675     -0.9861  N       1  LIG       0.0000
     5  C5        -0.4313      0.3340     -0.2285  C       1  LIG       0.0000
     6  C6         0.3451     -0.9338     -0.1033  C       1  LIG       0.0000
     7  C7         1.5497     -0.9115     -0.9886  C       1  LIG       0.0000
     8  C8         1.3262      0.2176      0.0444  C       1  LIG       0.0000
     9  N9         0.2370      0.8809      0.8771  N       1  LIG       0.0000
    10  H10       -2.9405      1.0006     -0.0691  H       1  LIG       0.0000
    11  H11       -0.0782     -1.8445      0.2784  H       1  LIG       0.0000
    12  H12        1.6731     -0.4661     -1.9648  H       1  LIG       0.0000
    13  H13        2.0080     -1.8802     -0.8240  H       1  LIG       0.0000
    14  H14        2.2460      0.7779      0.0720  H       1  LIG       0.0000
@<TRIPOS>BOND
    1     3    10  1
    2     2     9  1
    3     5     9  1
    4     8     9  1
    5     2     3  1
    6     3     4  1
    7     1     2  2
    8     8    14  1
    9     4     5  1
   10     5     6  1
   11     6    11  1
   12     6     8  1
   13     7     8  1
   14     6     7  1
   15     7    12  1
   16     7    13  1
