@<TRIPOS>MOLECULE
generated_molecule
16 17 0 0 0
SMALL
NO_CHARGES

@<TRIPOS>ATOM
     1  O1         2.1491     -0.6918     -2.8344  O       1  LIG       0.0000
     2  C2         1.3670     -0.4725     -1.9168  C       1  LIG       0.0000
     3  C3         0.2458     -1.2174     -1.1976  C       1  LIG       0.0000
     4  C4         0.1372      0.0263     -0.2476  C       1  LIG       0.0000
     5  C5        -1.1497      0.8281      0.0817  C       1  LIG       0.0000
     6  C6        -0.7917      0.8207      1.5887  C       1  LIG       0.0000
     7  C7         0.4763     -0.0013      1.2531  C       1  LIG       0.0000
     8  O8         1.1202      0.5770     -1.0926  O       1  LIG       0.0000
     9  H9        -0.5392     -1.4353     -1.9407  H       1  LIG       0.0000
    10  H10        0.5136     -2.1269     -0.6677  H       1  LIG       0.0000
    11  H11       -2.2115      0.5281      0.1944  H       1  LIG       0.0000
    12  H12       -1.0826      1.5760     -0.6798  H       1  LIG       0.0000
    13  H13       -1.2426      1.8127      1.7262  H       1  LIG       0.0000
    14  H14       -0.8782      0.2812      2.5444  H       1  LIG       0.0000
    15  H15        0.4252     -0.9439      1.8026  H       1  LIG       0.0000
    16  H16        1.4609      0.4389      1.3862  H       1  LIG       0.0000
@<TRIPOS>BOND
    1     1     2  2
    2     3     9  1
    3     5    12  1
    4     2     3  1
    5     2     8  1
    6     3     4  1
    7     3    10  1
    8     5    11  1
    9     4     8  1
   10     4     5  1
   11     5     6  1
   12     4     7  1
   13     6    14  1
   14     6     7  1
   15     6    13  1
   16     7    16  1
   17     7    15  1
