@<TRIPOS>MOLECULE
generated_molecule
23 23 0 0 0
SMALL
NO_CHARGES

@<TRIPOS>ATOM
     1  C1         0.9167     -0.7529     -0.6276  C       1  LIG       0.0000
     2  C2         1.0065      0.7899     -0.3924  C       1  LIG       0.0000
     3  C3        -0.2312      1.4857      0.0738  C       1  LIG       0.0000
     4  O4         0.8133      2.3175     -0.2937  O       1  LIG       0.0000
     5  C5         1.3868      1.1642      0.3310  C       1  LIG       0.0000
     6  C6         0.3875      0.1914      1.0783  C       1  LIG       0.0000
     7  C7        -1.1091      0.3000      0.6357  C       1  LIG       0.0000
     8  O8        -1.8627     -0.7073      0.1382  O       1  LIG       0.0000
     9  C9        -2.1503     -1.8528     -0.5589  C       1  LIG       0.0000
    10  H10        1.3967     -1.3429      0.1729  H       1  LIG       0.0000
    11  H11        1.3433     -0.9232     -1.5627  H       1  LIG       0.0000
    12  H12       -0.1365     -1.1168     -0.5889  H       1  LIG       0.0000
    13  H13        1.1569      1.3719     -1.2449  H       1  LIG       0.0000
    14  H14        1.7890      0.8555      0.3669  H       1  LIG       0.0000
    15  H15       -1.0646      2.1664      0.2614  H       1  LIG       0.0000
    16  H16        2.1200      1.3143      1.1100  H       1  LIG       0.0000
    17  H17        1.8647      1.0220     -0.6685  H       1  LIG       0.0000
    18  H18       -0.2201     -0.0686      1.9163  H       1  LIG       0.0000
    19  H19        1.3121     -0.2827      0.9500  H       1  LIG       0.0000
    20  H20       -2.0739      0.4628      1.1104  H       1  LIG       0.0000
    21  H21       -1.4293     -1.9943     -1.3587  H       1  LIG       0.0000
    22  H22       -2.0880     -2.6806      0.1207  H       1  LIG       0.0000
    23  H23       -3.1276     -1.7194     -0.9691  H       1  LIG       0.0000
@<TRIPOS>BOND
    1     2    14  1
    2     1    11  1
    3     9    21  1
    4     9    22  1
    5     2    13  1
    6     1     2  1
    7     2     3  1
    8     8     9  1
    9     9    23  1
   10     1    10  1
   11     1    12  1
   12     7     8  1
   13     7    20  1
   14     3     7  1
   15     6     7  1
   16     3    15  1
   17     3     4  1
   18     4     5  1
   19     6    19  1
   20     6    18  1
   21     5     6  1
   22     5    16  1
   23     5    17  1
