@<TRIPOS>MOLECULE
generated_molecule
18 21 0 0 0
SMALL
NO_CHARGES

@<TRIPOS>ATOM
     1  O1         0.8774      1.6584     -1.6099  O       1  LIG       0.0000
     2  C2         0.4382      0.9115     -0.5599  C       1  LIG       0.0000
     3  C3         1.2144     -0.2710      0.1840  C       1  LIG       0.0000
     4  C4         0.3644     -1.5164      0.6921  C       1  LIG       0.0000
     5  N5        -1.1924     -1.3770      0.7071  N       1  LIG       0.0000
     6  C6        -0.3156     -0.4039      0.1990  C       1  LIG       0.0000
     7  C7        -1.5838      0.1171      0.7977  C       1  LIG       0.0000
     8  C8        -0.8845      1.4070      0.1023  C       1  LIG       0.0000
     9  C9        -0.9181      0.4410     -1.0311  C       1  LIG       0.0000
    10  H10        1.5744      1.2124     -2.1156  H       1  LIG       0.0000
    11  H11        1.9505     -0.9749     -0.2224  H       1  LIG       0.0000
    12  H12        1.7639      0.5043      0.7245  H       1  LIG       0.0000
    13  H13        1.0294     -1.6657      1.5349  H       1  LIG       0.0000
    14  H14        0.0290     -2.4733      0.2710  H       1  LIG       0.0000
    15  H15        0.5833     -0.8889      0.5845  H       1  LIG       0.0000
    16  H16       -2.4667      0.2997      1.3996  H       1  LIG       0.0000
    17  H17       -1.1547      2.4410      0.3340  H       1  LIG       0.0000
    18  H18       -1.3093      0.5789     -1.9920  H       1  LIG       0.0000
@<TRIPOS>BOND
    1     4    13  1
    2     3    11  1
    3     3     4  1
    4     4    14  1
    5     4     5  1
    6     3    12  1
    7     2     3  1
    8     7    16  1
    9     5     7  1
   10     5     6  1
   11     1     2  1
   12     2     8  1
   13     2     9  1
   14     7     8  1
   15     6     7  1
   16     1    10  1
   17     8    17  1
   18     8     9  1
   19     6     9  1
   20     6    15  1
   21     9    18  1
