@<TRIPOS>MOLECULE
generated_molecule
11 11 0 0 0
SMALL
NO_CHARGES

@<TRIPOS>ATOM
     1  O1        -1.3076      1.4403      1.1550  O       1  LIG       0.0000
     2  C2        -0.4906      1.1997      0.1049  C       1  LIG       0.0000
     3  C3         0.3087      0.1579     -0.1023  C       1  LIG       0.0000
     4  O4         0.7573     -0.8519      0.6612  O       1  LIG       0.0000
     5  C5         0.6831     -2.1792      0.4908  C       1  LIG       0.0000
     6  O6         0.9342     -2.8539     -0.5122  O       1  LIG       0.0000
     7  O7         0.8550      0.3098     -1.3198  O       1  LIG       0.0000
     8  N8         0.4447      1.4938     -1.8595  N       1  LIG       0.0000
     9  N9        -0.3857      2.0376     -0.9489  N       1  LIG       0.0000
    10  H10       -2.1559      1.8203      0.9198  H       1  LIG       0.0000
    11  H11        0.3568     -2.5745      1.4109  H       1  LIG       0.0000
@<TRIPOS>BOND
    1     1     2  1
    2     1    10  1
    3     2     3  ar
    4     2     9  ar
    5     3     4  1
    6     3     7  ar
    7     4     5  1
    8     5     6  2
    9     5    11  1
   10     7     8  ar
   11     8     9  ar
