@<TRIPOS>MOLECULE
generated_molecule
19 20 0 0 0
SMALL
NO_CHARGES

@<TRIPOS>ATOM
     1  C1         1.6932      0.8733      1.2792  C       1  LIG       0.0000
     2  C2         1.0779      0.4341     -0.0758  C       1  LIG       0.0000
     3  C3         0.8557     -0.8021     -0.9343  C       1  LIG       0.0000
     4  C4        -0.5383     -1.2865     -0.4130  C       1  LIG       0.0000
     5  C5        -1.0157      0.1226      0.0279  C       1  LIG       0.0000
     6  C6        -2.4043     -0.0599      0.5254  C       1  LIG       0.0000
     7  O7        -2.8779     -1.0380      1.1128  O       1  LIG       0.0000
     8  C8        -0.0084      0.5607     -1.0525  C       1  LIG       0.0000
     9  O9         0.7890      1.6600     -0.6917  O       1  LIG       0.0000
    10  H10        2.2598      1.8172      1.2041  H       1  LIG       0.0000
    11  H11        2.3639      0.1042      1.6368  H       1  LIG       0.0000
    12  H12        0.9276      1.0441      2.0473  H       1  LIG       0.0000
    13  H13        1.6175     -1.5507     -0.7343  H       1  LIG       0.0000
    14  H14        0.8359     -0.5163     -1.9865  H       1  LIG       0.0000
    15  H15       -1.4567     -1.5465     -0.9244  H       1  LIG       0.0000
    16  H16       -0.2079     -2.1329      0.1880  H       1  LIG       0.0000
    17  H17       -0.8404      1.0591      0.5349  H       1  LIG       0.0000
    18  H18       -3.0836      0.8283      0.3768  H       1  LIG       0.0000
    19  H19        0.0128      0.4292     -2.1209  H       1  LIG       0.0000
@<TRIPOS>BOND
    1     3    14  1
    2     1    11  1
    3     4    16  1
    4     3    13  1
    5     2     3  1
    6     3     4  1
    7     1     2  1
    8     1    10  1
    9     1    12  1
   10     2     9  1
   11     8     9  1
   12     2     8  1
   13     4    15  1
   14     4     5  1
   15     6    18  1
   16     5     8  1
   17     8    19  1
   18     5     6  1
   19     5    17  1
   20     6     7  2
