@<TRIPOS>MOLECULE
generated_molecule
18 21 0 0 0
SMALL
NO_CHARGES

@<TRIPOS>ATOM
     1  C1        -0.2634      1.2483      1.4919  C       1  LIG       0.0000
     2  C2        -0.1464     -0.0346      0.7198  C       1  LIG       0.0000
     3  C3        -0.0470      0.5117     -0.6802  C       1  LIG       0.0000
     4  C4        -1.4747      0.2118     -1.1328  C       1  LIG       0.0000
     5  N5        -1.1853     -0.7564     -0.0241  N       1  LIG       0.0000
     6  C6         0.0495     -1.5131     -0.4713  C       1  LIG       0.0000
     7  C7         1.1827     -0.5558     -0.7075  C       1  LIG       0.0000
     8  O8         1.8942     -1.6272     -0.1927  O       1  LIG       0.0000
     9  C9         1.0770     -1.0257      0.6029  C       1  LIG       0.0000
    10  H10       -0.2479      0.9749      2.5278  H       1  LIG       0.0000
    11  H11       -1.1824      1.8120      1.2586  H       1  LIG       0.0000
    12  H12        0.5471      1.9295      1.2416  H       1  LIG       0.0000
    13  H13       -0.1012      1.5793     -0.5579  H       1  LIG       0.0000
    14  H14       -2.5906      0.0109     -1.0697  H       1  LIG       0.0000
    15  H15       -1.3598      0.8028     -2.0409  H       1  LIG       0.0000
    16  H16       -0.1029     -2.3758     -1.1577  H       1  LIG       0.0000
    17  H17        2.1049     -0.2924     -1.1409  H       1  LIG       0.0000
    18  H18        1.8460     -0.9001      1.3332  H       1  LIG       0.0000
@<TRIPOS>BOND
    1     3    13  1
    2     7    17  1
    3     3     7  1
    4     3     4  1
    5     2     3  1
    6     7     8  1
    7     6     7  1
    8     8     9  1
    9     1    11  1
   10     4    15  1
   11     4    14  1
   12     4     5  1
   13     1    10  1
   14     1     2  1
   15     2     9  1
   16     2     5  1
   17     1    12  1
   18     6     9  1
   19     9    18  1
   20     5     6  1
   21     6    16  1
