@<TRIPOS>MOLECULE
generated_molecule
17 17 0 0 0
SMALL
NO_CHARGES

@<TRIPOS>ATOM
     1  C1         0.8039     -1.8081     -1.6196  C       1  LIG       0.0000
     2  C2        -0.4269     -0.8913     -1.4180  C       1  LIG       0.0000
     3  O3        -1.3235     -1.2399     -2.1388  O       1  LIG       0.0000
     4  C4        -0.5025      0.3003     -0.4198  C       1  LIG       0.0000
     5  C5        -1.3174      1.3600     -0.8022  C       1  LIG       0.0000
     6  O6        -1.5610      2.1468      0.2791  O       1  LIG       0.0000
     7  C7        -0.8761      1.6601      1.3319  C       1  LIG       0.0000
     8  C8        -0.0926      0.6165      0.8986  C       1  LIG       0.0000
     9  C9         1.0080      0.1564      1.9016  C       1  LIG       0.0000
    10  H10        0.8772     -2.0927     -2.6791  H       1  LIG       0.0000
    11  H11        1.7779     -1.3771     -1.3677  H       1  LIG       0.0000
    12  H12        0.6310     -2.6805     -1.0187  H       1  LIG       0.0000
    13  H13       -1.7087      1.6919     -1.7190  H       1  LIG       0.0000
    14  H14       -1.0965      2.0117      2.2885  H       1  LIG       0.0000
    15  H15        0.6896     -0.7565      2.3898  H       1  LIG       0.0000
    16  H16        1.9534      0.0196      1.3886  H       1  LIG       0.0000
    17  H17        1.1642      0.8829      2.7048  H       1  LIG       0.0000
@<TRIPOS>BOND
    1     1    11  1
    2     9    15  1
    3     1    10  1
    4     2     3  2
    5     1     2  1
    6     1    12  1
    7     2     4  1
    8     8     9  1
    9     9    17  1
   10     9    16  1
   11     4     8  ar
   12     4     5  ar
   13     7     8  ar
   14     5    13  1
   15     5     6  ar
   16     6     7  ar
   17     7    14  1
