@<TRIPOS>MOLECULE
generated_molecule
15 15 0 0 0
SMALL
NO_CHARGES

@<TRIPOS>ATOM
     1  O1         0.4684      2.6998      0.5587  O       1  LIG       0.0000
     2  C2         0.9247      1.7416     -0.0749  C       1  LIG       0.0000
     3  O3         1.6210      1.7997     -1.0668  O       1  LIG       0.0000
     4  C4         0.6848      0.3326      0.2915  C       1  LIG       0.0000
     5  C5         1.1876     -0.7744     -0.2638  C       1  LIG       0.0000
     6  N6         0.0809     -1.6153     -0.3516  N       1  LIG       0.0000
     7  C7        -0.7163     -0.5580     -0.0407  C       1  LIG       0.0000
     8  N8        -1.5730      0.0097     -0.8824  N       1  LIG       0.0000
     9  H9        -2.1704     -0.6865     -1.2857  H       1  LIG       0.0000
    10  H10       -1.2349      0.8638     -1.2949  H       1  LIG       0.0000
    11  C11       -0.3493     -0.0769      1.2853  C       1  LIG       0.0000
    12  H12        2.1910     -1.0365     -0.6070  H       1  LIG       0.0000
    13  H13       -0.0485     -2.5866     -0.0804  H       1  LIG       0.0000
    14  H14       -1.3697      0.0756      1.6657  H       1  LIG       0.0000
    15  H15        0.3035     -0.1885      2.1472  H       1  LIG       0.0000
@<TRIPOS>BOND
    1    11    15  1
    2     2     3  1
    3     1     2  2
    4     2     4  1
    5     4    11  1
    6     4     5  2
    7     7    11  1
    8    11    14  1
    9     5    12  1
   10     5     6  1
   11     6     7  1
   12     7     8  1
   13     6    13  1
   14     8    10  1
   15     8     9  1
