@<TRIPOS>MOLECULE
generated_molecule
18 18 0 0 0
SMALL
NO_CHARGES

@<TRIPOS>ATOM
     1  C1         0.6246     -0.7042      1.5725  C       1  LIG       0.0000
     2  C2         0.0296     -1.1900      0.1916  C       1  LIG       0.0000
     3  O3         0.1772     -2.4817     -0.2299  O       1  LIG       0.0000
     4  C4         0.5470     -0.4510     -1.0637  C       1  LIG       0.0000
     5  O5         0.6105      0.3476     -2.2100  O       1  LIG       0.0000
     6  C6        -0.4299      0.6491     -1.3677  C       1  LIG       0.0000
     7  C7        -0.8938      1.2948     -0.0474  C       1  LIG       0.0000
     8  C8        -0.4374      2.7001     -0.2534  C       1  LIG       0.0000
     9  N9        -0.0577      3.7261     -0.4206  N       1  LIG       0.0000
    10  H10        1.6983     -0.8206      1.5961  H       1  LIG       0.0000
    11  H11        0.4233      0.3817      1.7332  H       1  LIG       0.0000
    12  H12        0.1613     -1.2386      2.3868  H       1  LIG       0.0000
    13  H13       -1.0221     -1.1022      0.4461  H       1  LIG       0.0000
    14  H14        0.6758     -3.1629      0.1938  H       1  LIG       0.0000
    15  H15        1.4960     -0.8212     -1.4385  H       1  LIG       0.0000
    16  H16       -1.1511      0.8486     -2.1442  H       1  LIG       0.0000
    17  H17       -1.9203      1.0098      0.0698  H       1  LIG       0.0000
    18  H18       -0.5313      1.0145      0.9856  H       1  LIG       0.0000
@<TRIPOS>BOND
    1     1    11  1
    2     8     9  3
    3     5     6  1
    4     4     5  1
    5     7    17  1
    6     7     8  1
    7     2    13  1
    8     1    10  1
    9     1     2  1
   10     1    12  1
   11     6     7  1
   12     7    18  1
   13     2     4  1
   14     2     3  1
   15     4     6  1
   16     6    16  1
   17     4    15  1
   18     3    14  1
