@<TRIPOS>MOLECULE
generated_molecule
21 22 0 0 0
SMALL
NO_CHARGES

@<TRIPOS>ATOM
     1  O1         2.3405     -0.3388     -1.8892  O       1  LIG       0.0000
     2  C2         1.1395     -0.4838     -1.1865  C       1  LIG       0.0000
     3  C3         1.0506      1.0685     -1.1055  C       1  LIG       0.0000
     4  C4        -0.0508      0.9141      0.0029  C       1  LIG       0.0000
     5  O5        -0.6800      2.1359      0.1224  O       1  LIG       0.0000
     6  C6         0.1186     -0.5777     -0.0281  C       1  LIG       0.0000
     7  C7        -0.5346      0.3362      1.3287  C       1  LIG       0.0000
     8  C8        -0.8197     -1.0772      0.7268  C       1  LIG       0.0000
     9  C9        -1.8578     -0.4092      1.6480  C       1  LIG       0.0000
    10  H10        2.8490     -1.1205     -2.2034  H       1  LIG       0.0000
    11  H11        0.8699     -1.5137     -1.3928  H       1  LIG       0.0000
    12  H12        1.9709      1.5353     -0.7857  H       1  LIG       0.0000
    13  H13        0.6956      1.5405     -2.0016  H       1  LIG       0.0000
    14  H14       -0.7621      2.8145     -0.5160  H       1  LIG       0.0000
    15  H15        0.5475     -0.9652      0.8926  H       1  LIG       0.0000
    16  H16       -0.8264     -1.0436     -0.2681  H       1  LIG       0.0000
    17  H17       -0.1702      0.9859      2.0809  H       1  LIG       0.0000
    18  H18       -0.3226     -1.9402      1.1345  H       1  LIG       0.0000
    19  H19       -0.8975     -1.0786     -0.3498  H       1  LIG       0.0000
    20  H20       -1.8830     -0.4376      2.6981  H       1  LIG       0.0000
    21  H21       -2.7772     -0.3449      1.0917  H       1  LIG       0.0000
@<TRIPOS>BOND
    1     2    11  1
    2     6    15  1
    3     6    16  1
    4     2     6  1
    5     4     6  1
    6     1     2  1
    7     2     3  1
    8     1    10  1
    9     3    12  1
   10     3     4  1
   11     3    13  1
   12     4     5  1
   13     4     7  1
   14     5    14  1
   15     7    17  1
   16     7     9  1
   17     7     8  1
   18     9    20  1
   19     9    21  1
   20     8     9  1
   21     8    19  1
   22     8    18  1
