@<TRIPOS>MOLECULE
generated_molecule
21 22 0 0 0
SMALL
NO_CHARGES

@<TRIPOS>ATOM
     1  O1        -1.9569      2.4234     -1.7401  O       1  LIG       0.0000
     2  C2        -1.6714      1.2899     -0.9679  C       1  LIG       0.0000
     3  C3        -0.2360      0.8410     -1.4369  C       1  LIG       0.0000
     4  C4         0.0801      0.0553     -0.1255  C       1  LIG       0.0000
     5  C5        -1.2286      0.6612      0.3761  C       1  LIG       0.0000
     6  C6         1.4462     -0.7070     -0.4012  C       1  LIG       0.0000
     7  C7         1.9159     -1.3619      0.9086  C       1  LIG       0.0000
     8  C8         0.5973     -1.5438      1.6943  C       1  LIG       0.0000
     9  O9        -0.0018     -0.4353      1.1630  O       1  LIG       0.0000
    10  H10       -2.5532      3.0619     -1.3225  H       1  LIG       0.0000
    11  H11       -2.7187      1.0359     -0.8534  H       1  LIG       0.0000
    12  H12        0.5965      1.4890     -1.4913  H       1  LIG       0.0000
    13  H13       -0.4556      0.3475     -2.3753  H       1  LIG       0.0000
    14  H14       -2.2823      0.3372      0.5109  H       1  LIG       0.0000
    15  H15       -0.7773      0.9483      1.2879  H       1  LIG       0.0000
    16  H16        1.0021     -0.8194     -1.3471  H       1  LIG       0.0000
    17  H17        2.5411     -0.6433     -0.4445  H       1  LIG       0.0000
    18  H18        2.7763     -0.6937      1.0721  H       1  LIG       0.0000
    19  H19        2.2707     -2.3747      1.2358  H       1  LIG       0.0000
    20  H20       -0.0727     -2.4060      1.4933  H       1  LIG       0.0000
    21  H21        0.7285     -1.5054      2.7637  H       1  LIG       0.0000
@<TRIPOS>BOND
    1     1    10  1
    2     1     2  1
    3     5    15  1
    4     2    11  1
    5     5    14  1
    6     2     5  1
    7     2     3  1
    8     4     5  1
    9     6    16  1
   10     3     4  1
   11     3    13  1
   12     3    12  1
   13     4     6  1
   14     4     9  1
   15     6    17  1
   16     6     7  1
   17     8     9  1
   18     8    20  1
   19     7     8  1
   20     8    21  1
   21     7    18  1
   22     7    19  1
