@<TRIPOS>MOLECULE
generated_molecule
21 21 0 0 0
SMALL
NO_CHARGES

@<TRIPOS>ATOM
     1  C1        -1.0538      2.6704      0.5117  C       1  LIG       0.0000
     2  C2        -0.9724      1.7163     -0.8252  C       1  LIG       0.0000
     3  C3        -0.3354      0.2780     -0.9040  C       1  LIG       0.0000
     4  C4         0.5369     -1.1066     -0.9021  C       1  LIG       0.0000
     5  C5         1.6737     -1.4439      0.2399  C       1  LIG       0.0000
     6  C6         1.3299     -0.1474      0.5807  C       1  LIG       0.0000
     7  C7         0.1782     -0.6547      0.1519  C       1  LIG       0.0000
     8  C8        -0.2633     -1.8763      0.6625  C       1  LIG       0.0000
     9  C9        -0.6165     -2.9143      1.1344  C       1  LIG       0.0000
    10  H10       -0.1436      2.5203      1.1096  H       1  LIG       0.0000
    11  H11       -1.1322      3.7561      0.3703  H       1  LIG       0.0000
    12  H12       -1.8993      2.3679      1.1249  H       1  LIG       0.0000
    13  H13       -2.0797      1.7762     -1.0202  H       1  LIG       0.0000
    14  H14       -0.4990      2.4512     -1.5384  H       1  LIG       0.0000
    15  H15       -0.8749      0.5403     -1.7793  H       1  LIG       0.0000
    16  H16       -0.2342     -1.8115     -0.7808  H       1  LIG       0.0000
    17  H17        1.1546     -1.1468     -1.7915  H       1  LIG       0.0000
    18  H18        1.9491     -1.6567      1.3216  H       1  LIG       0.0000
    19  H19        2.4002     -2.1823     -0.2187  H       1  LIG       0.0000
    20  H20        1.8496      0.7035      0.9967  H       1  LIG       0.0000
    21  H21       -0.9678     -3.8397      1.5560  H       1  LIG       0.0000
@<TRIPOS>BOND
    1     6    20  1
    2     5    18  1
    3     5     6  1
    4     6     7  2
    5     5    19  1
    6     4     5  1
    7     9    21  1
    8     8     9  3
    9     7     8  1
   10     3     7  1
   11     3     4  1
   12     4    16  1
   13     4    17  1
   14     3    15  1
   15     2     3  1
   16     2    14  1
   17     2    13  1
   18     1     2  1
   19     1    11  1
   20     1    10  1
   21     1    12  1
