@<TRIPOS>MOLECULE
generated_molecule
20 21 0 0 0
SMALL
NO_CHARGES

@<TRIPOS>ATOM
     1  C1         0.6645      1.3806      1.1958  C       1  LIG       0.0000
     2  C2         0.2303     -0.0325      0.8952  C       1  LIG       0.0000
     3  N3        -0.1136     -1.1986      1.7207  N       1  LIG       0.0000
     4  C4         0.9459     -1.3350      0.7004  C       1  LIG       0.0000
     5  C5         0.6207     -0.6517     -0.6571  C       1  LIG       0.0000
     6  O6         1.9987     -0.9239     -0.6646  O       1  LIG       0.0000
     7  C7        -0.6815      0.0679     -0.3092  C       1  LIG       0.0000
     8  C8        -1.3118      0.3664     -1.6698  C       1  LIG       0.0000
     9  O9        -1.8249      0.4823      0.3665  O       1  LIG       0.0000
    10  H10       -0.2000      2.0287      1.1012  H       1  LIG       0.0000
    11  H11        1.0682      1.4982      2.2142  H       1  LIG       0.0000
    12  H12        1.4376      1.7219      0.5004  H       1  LIG       0.0000
    13  H13       -0.8544     -1.7722      1.3146  H       1  LIG       0.0000
    14  H14        1.6413     -2.1061      1.0192  H       1  LIG       0.0000
    15  H15        0.1066     -0.5605     -1.5520  H       1  LIG       0.0000
    16  H16        2.5373     -0.7667     -1.4636  H       1  LIG       0.0000
    17  H17       -1.5279      1.4254     -1.7139  H       1  LIG       0.0000
    18  H18       -2.2241     -0.2048     -1.7902  H       1  LIG       0.0000
    19  H19       -0.6587      0.1051     -2.5228  H       1  LIG       0.0000
    20  H20       -1.8543      0.4755      1.3150  H       1  LIG       0.0000
@<TRIPOS>BOND
    1     8    18  1
    2     8    19  1
    3     9    20  1
    4     8    17  1
    5     7     8  1
    6     7     9  1
    7     5     7  1
    8     2     7  1
    9     1    11  1
   10     1    10  1
   11     5    15  1
   12     5     6  1
   13     6    16  1
   14     4     5  1
   15     1     2  1
   16     2     3  1
   17     2     4  1
   18     1    12  1
   19     3     4  1
   20     3    13  1
   21     4    14  1
