@<TRIPOS>MOLECULE
generated_molecule
17 17 0 0 0
SMALL
NO_CHARGES

@<TRIPOS>ATOM
     1  C1         2.5052     -0.4813     -0.8167  C       1  LIG       0.0000
     2  N2         1.2133     -0.1236     -0.1765  N       1  LIG       0.0000
     3  C3         1.2268      1.2041     -0.0815  C       1  LIG       0.0000
     4  N4         0.0798      1.8629     -0.0466  N       1  LIG       0.0000
     5  C5        -1.1592      1.2601      0.0618  C       1  LIG       0.0000
     6  O6        -2.1196      2.0121     -0.0982  O       1  LIG       0.0000
     7  C7        -1.1995     -0.1334      0.3192  C       1  LIG       0.0000
     8  C8        -2.5837     -0.6730      0.6925  C       1  LIG       0.0000
     9  C9         0.0416     -0.7981      0.1912  C       1  LIG       0.0000
    10  H10        2.6457     -1.5668     -0.9081  H       1  LIG       0.0000
    11  H11        3.3438     -0.0599     -0.2383  H       1  LIG       0.0000
    12  H12        2.5754     -0.0191     -1.7868  H       1  LIG       0.0000
    13  H13        2.1298      1.7151      0.0680  H       1  LIG       0.0000
    14  H14       -2.6612     -0.8643      1.7589  H       1  LIG       0.0000
    15  H15       -3.3512      0.0550      0.4491  H       1  LIG       0.0000
    16  H16       -2.8065     -1.5827      0.1383  H       1  LIG       0.0000
    17  H17        0.1196     -1.8071      0.4737  H       1  LIG       0.0000
@<TRIPOS>BOND
    1     3    13  1
    2     3     4  ar
    3     4     5  ar
    4     2     3  ar
    5     1    11  1
    6     5     6  2
    7     5     7  ar
    8     1     2  1
    9     2     9  ar
   10     1    10  1
   11     1    12  1
   12     7     9  ar
   13     9    17  1
   14     7     8  1
   15     8    14  1
   16     8    16  1
   17     8    15  1
