@<TRIPOS>MOLECULE
generated_molecule
21 20 0 0 0
SMALL
NO_CHARGES

@<TRIPOS>ATOM
     1  C1        -3.2422      0.1812     -0.2305  C       1  LIG       0.0000
     2  C2        -1.9969      0.9349     -0.3666  C       1  LIG       0.0000
     3  C3        -0.9448      1.4720     -0.4535  C       1  LIG       0.0000
     4  C4         0.3968      2.0272     -0.5393  C       1  LIG       0.0000
     5  C5         1.2706      1.1683      0.4587  C       1  LIG       0.0000
     6  C6         0.8461     -0.2800      0.7514  C       1  LIG       0.0000
     7  C7         0.8035     -1.1209     -0.5557  C       1  LIG       0.0000
     8  C8         1.5467     -2.2066      0.0773  C       1  LIG       0.0000
     9  C9         2.1490     -3.0310      0.6304  C       1  LIG       0.0000
    10  H10       -3.9770      0.6146      0.4828  H       1  LIG       0.0000
    11  H11       -3.7438      0.0934     -1.1991  H       1  LIG       0.0000
    12  H12       -2.9197     -0.7684      0.1347  H       1  LIG       0.0000
    13  H13       -0.1779      2.9414     -0.8862  H       1  LIG       0.0000
    14  H14        1.3392      2.1159     -1.0311  H       1  LIG       0.0000
    15  H15        1.5734      2.2207      0.4906  H       1  LIG       0.0000
    16  H16        1.9783      0.5749      0.9745  H       1  LIG       0.0000
    17  H17        1.4930     -0.9216      1.2932  H       1  LIG       0.0000
    18  H18       -0.1235     -0.2254      1.2377  H       1  LIG       0.0000
    19  H19        0.1280     -1.7385     -1.2293  H       1  LIG       0.0000
    20  H20        0.8935     -0.2897     -1.2260  H       1  LIG       0.0000
    21  H21        2.7077     -3.7624      1.1860  H       1  LIG       0.0000
@<TRIPOS>BOND
    1     4    13  1
    2     6    17  1
    3     5    16  1
    4     7    20  1
    5     1    11  1
    6     9    21  1
    7     8     9  3
    8     3     4  1
    9     4     5  1
   10     4    14  1
   11     5     6  1
   12     6     7  1
   13     6    18  1
   14     7     8  1
   15     2     3  3
   16     5    15  1
   17     7    19  1
   18     1     2  1
   19     1    10  1
   20     1    12  1
