@<TRIPOS>MOLECULE
generated_molecule
14 14 0 0 0
SMALL
NO_CHARGES

@<TRIPOS>ATOM
     1  O1         1.9224      2.1803      0.7176  O       1  LIG       0.0000
     2  C2         1.1011      1.3276      0.4863  C       1  LIG       0.0000
     3  N3        -0.3050      1.5276      0.5643  N       1  LIG       0.0000
     4  C4        -1.3780      0.7383      0.1153  C       1  LIG       0.0000
     5  C5        -1.3593     -0.4741     -0.5181  C       1  LIG       0.0000
     6  C6        -0.2697     -1.5119     -0.5159  C       1  LIG       0.0000
     7  O7        -0.5022     -2.6638     -0.8362  O       1  LIG       0.0000
     8  C8         1.1958     -1.1186     -0.1214  C       1  LIG       0.0000
     9  O9         1.5928      0.1450      0.1253  O       1  LIG       0.0000
    10  H10       -0.5965      2.4135      0.9606  H       1  LIG       0.0000
    11  H11       -2.3802      1.1812      0.2656  H       1  LIG       0.0000
    12  H12       -2.2444     -0.7430     -1.1025  H       1  LIG       0.0000
    13  H13        1.3533     -1.8750     -0.8440  H       1  LIG       0.0000
    14  H14        1.8698     -1.1271      0.7030  H       1  LIG       0.0000
@<TRIPOS>BOND
    1     8    13  1
    2     8    14  1
    3     6     8  1
    4     8     9  1
    5     6     7  2
    6     5     6  1
    7     5    12  1
    8     4     5  2
    9     3     4  1
   10     3    10  1
   11     2     3  1
   12     2     9  1
   13     4    11  1
   14     1     2  2
