@<TRIPOS>MOLECULE
generated_molecule
22 23 0 0 0
SMALL
NO_CHARGES

@<TRIPOS>ATOM
     1  C1         0.4994     -1.8833     -0.6430  C       1  LIG       0.0000
     2  C2        -0.3090     -0.8936      0.1923  C       1  LIG       0.0000
     3  C3        -0.8522     -0.2682      1.4916  C       1  LIG       0.0000
     4  C4        -1.4296      1.1114      1.1030  C       1  LIG       0.0000
     5  C5        -1.6019      1.2441     -0.4133  C       1  LIG       0.0000
     6  C6        -0.4975      1.0161     -1.1717  C       1  LIG       0.0000
     7  C7         0.5532      0.1847     -0.5548  C       1  LIG       0.0000
     8  C8         1.8877      0.6125      0.0094  C       1  LIG       0.0000
     9  N9         1.7444      0.0779     -1.3742  N       1  LIG       0.0000
    10  H10        1.3300     -2.2904     -0.0615  H       1  LIG       0.0000
    11  H11       -0.1667     -2.7030     -0.9015  H       1  LIG       0.0000
    12  H12        0.8603     -1.3979     -1.5213  H       1  LIG       0.0000
    13  H13       -1.2453     -1.2901      0.4744  H       1  LIG       0.0000
    14  H14       -0.3168     -1.0941      1.9162  H       1  LIG       0.0000
    15  H15       -1.4876      0.0829      2.3882  H       1  LIG       0.0000
    16  H16       -1.3834      2.1977      0.8064  H       1  LIG       0.0000
    17  H17       -1.7461      0.9600      2.0844  H       1  LIG       0.0000
    18  H18       -2.5598      1.5430     -0.8561  H       1  LIG       0.0000
    19  H19       -0.3863      1.4257     -2.1703  H       1  LIG       0.0000
    20  H20        2.4889     -0.0272      0.6970  H       1  LIG       0.0000
    21  H21        2.0438      1.6724      0.1478  H       1  LIG       0.0000
    22  H22        2.5745     -0.2806     -1.6428  H       1  LIG       0.0000
@<TRIPOS>BOND
    1     3    15  1
    2     4    16  1
    3     4    17  1
    4     3     4  1
    5     4     5  1
    6     3    14  1
    7     2     3  1
    8     1    11  1
    9     2    13  1
   10     1     2  1
   11     2     7  1
   12     1    10  1
   13     1    12  1
   14     5    18  1
   15     5     6  2
   16     6     7  1
   17     6    19  1
   18     7     9  1
   19     7     8  1
   20     9    22  1
   21     8     9  1
   22     8    21  1
   23     8    20  1
