@<TRIPOS>MOLECULE
generated_molecule
20 20 0 0 0
SMALL
NO_CHARGES

@<TRIPOS>ATOM
     1  N1         2.2005      1.8964      1.3285  N       1  LIG       0.0000
     2  C2         1.1326      1.6154      1.0611  C       1  LIG       0.0000
     3  C3        -0.2621      1.2124      0.7030  C       1  LIG       0.0000
     4  C4        -0.6434     -0.2237      1.1283  C       1  LIG       0.0000
     5  C5         0.2759     -1.4035      0.7019  C       1  LIG       0.0000
     6  C6         0.5559     -0.4360     -0.4331  C       1  LIG       0.0000
     7  C7         0.5217      0.0805     -1.8941  C       1  LIG       0.0000
     8  O8        -0.7535      0.5000     -1.5739  O       1  LIG       0.0000
     9  C9        -1.0107     -0.3571     -0.5020  C       1  LIG       0.0000
    10  H10       -1.0894      1.7494      1.0812  H       1  LIG       0.0000
    11  H11       -0.1843      1.5289     -0.3851  H       1  LIG       0.0000
    12  H12       -0.6238     -0.9696      1.8847  H       1  LIG       0.0000
    13  H13       -1.5607      0.2086      0.8404  H       1  LIG       0.0000
    14  H14        1.1987     -1.7076      1.2399  H       1  LIG       0.0000
    15  H15       -0.1304     -2.3962      0.4677  H       1  LIG       0.0000
    16  H16        1.6014     -0.2041     -0.2660  H       1  LIG       0.0000
    17  H17        0.2631     -0.3170     -2.8980  H       1  LIG       0.0000
    18  H18        1.5303      0.4650     -1.9957  H       1  LIG       0.0000
    19  H19       -1.8145     -0.8905     -1.0376  H       1  LIG       0.0000
    20  H20       -1.2073     -0.3512      0.5488  H       1  LIG       0.0000
@<TRIPOS>BOND
    1     7    18  1
    2     7    17  1
    3     7     8  1
    4     6     7  1
    5     8     9  1
    6     4    13  1
    7     3    10  1
    8     5    14  1
    9     1     2  3
   10     2     3  1
   11     9    19  1
   12     3     4  1
   13     4     5  1
   14     4    12  1
   15     3    11  1
   16     6     9  1
   17     9    20  1
   18     5     6  1
   19     6    16  1
   20     5    15  1
