@<TRIPOS>MOLECULE
generated_molecule
19 20 0 0 0
SMALL
NO_CHARGES

@<TRIPOS>ATOM
     1  C1        -0.7773      1.7751     -0.9616  C       1  LIG       0.0000
     2  C2        -0.6358      0.6022      0.0653  C       1  LIG       0.0000
     3  C3        -0.7754      0.1493      1.2230  C       1  LIG       0.0000
     4  C4         0.5271     -0.5934      0.9930  C       1  LIG       0.0000
     5  O5         0.0769     -0.5597      2.3151  O       1  LIG       0.0000
     6  C6         0.5429     -0.8740     -0.5292  C       1  LIG       0.0000
     7  C7         0.8482     -0.5126     -1.9951  C       1  LIG       0.0000
     8  O8         0.6926     -1.8085     -1.5683  O       1  LIG       0.0000
     9  C9        -0.1448     -0.6328      0.7241  C       1  LIG       0.0000
    10  H10       -0.8918      2.6923     -0.4190  H       1  LIG       0.0000
    11  H11       -1.6367      1.5715     -1.5395  H       1  LIG       0.0000
    12  H12        0.0952      1.8850     -1.5944  H       1  LIG       0.0000
    13  H13       -1.6311      0.3783      1.7842  H       1  LIG       0.0000
    14  H14        1.5535     -0.7930      0.8413  H       1  LIG       0.0000
    15  H15        0.6041     -1.0036      2.9734  H       1  LIG       0.0000
    16  H16        1.8386     -0.1235     -2.2387  H       1  LIG       0.0000
    17  H17        0.0750     -0.1444     -2.6821  H       1  LIG       0.0000
    18  H18        0.7132     -0.9828      1.3692  H       1  LIG       0.0000
    19  H19       -1.0743     -1.0255      1.2392  H       1  LIG       0.0000
@<TRIPOS>BOND
    1     3    13  1
    2     5    15  1
    3     4     5  1
    4     3     4  1
    5     2     3  2
    6     1    11  1
    7     4    14  1
    8     4     6  1
    9     1     2  1
   10     2     9  1
   11     1    10  1
   12     1    12  1
   13     6     8  1
   14     6     9  1
   15     6     7  1
   16     7     8  1
   17     7    17  1
   18     9    19  1
   19     9    18  1
   20     7    16  1
