@<TRIPOS>MOLECULE
generated_molecule
18 18 0 0 0
SMALL
NO_CHARGES

@<TRIPOS>ATOM
     1  C1         1.8684      2.4085     -1.5097  C       1  LIG       0.0000
     2  N2         1.5457      1.0069     -1.4560  N       1  LIG       0.0000
     3  C3         0.6903      0.2355     -0.8987  C       1  LIG       0.0000
     4  C4         0.7190     -0.2159      0.5385  C       1  LIG       0.0000
     5  C5        -0.3862     -1.2536      1.0035  C       1  LIG       0.0000
     6  C6        -1.1869     -0.8411     -0.3616  C       1  LIG       0.0000
     7  O7        -0.3994     -0.3737     -1.3829  O       1  LIG       0.0000
     8  C8        -2.0438     -1.3848      0.8240  C       1  LIG       0.0000
     9  C9        -2.7044     -1.7735      1.6671  C       1  LIG       0.0000
    10  H10        1.4337      3.0083     -0.6802  H       1  LIG       0.0000
    11  H11        1.4780      2.8389     -2.4182  H       1  LIG       0.0000
    12  H12        2.9285      2.5120     -1.4583  H       1  LIG       0.0000
    13  H13        0.2925      0.2084      1.4379  H       1  LIG       0.0000
    14  H14        1.7662     -0.3384      0.4266  H       1  LIG       0.0000
    15  H15       -0.1576     -1.1250      2.0181  H       1  LIG       0.0000
    16  H16       -0.9233     -2.2133      0.9747  H       1  LIG       0.0000
    17  H17       -1.6091     -0.5540     -1.2142  H       1  LIG       0.0000
    18  H18       -3.3116     -2.1454      2.4895  H       1  LIG       0.0000
@<TRIPOS>BOND
    1     9    18  1
    2     8     9  3
    3     6     8  1
    4     4    13  1
    5     1    10  1
    6     1    11  1
    7     6     7  1
    8     6    17  1
    9     5     6  1
   10     3     7  1
   11     1     2  1
   12     1    12  1
   13     2     3  1
   14     3     4  1
   15     4     5  1
   16     4    14  1
   17     5    15  1
   18     5    16  1
