@<TRIPOS>MOLECULE
generated_molecule
19 21 0 0 0
SMALL
NO_CHARGES

@<TRIPOS>ATOM
     1  O1        -2.6736     -1.6779      0.7484  O       1  LIG       0.0000
     2  C2        -2.2209     -0.6167      1.1369  C       1  LIG       0.0000
     3  C3        -0.9120     -0.1030      0.6779  C       1  LIG       0.0000
     4  C4        -0.0981     -0.0974      1.9841  C       1  LIG       0.0000
     5  C5         0.0096      1.0085      0.9378  C       1  LIG       0.0000
     6  C6         0.9998      0.3930     -0.0923  C       1  LIG       0.0000
     7  C7         1.6353     -0.3194     -1.3000  C       1  LIG       0.0000
     8  C8         0.5061      0.2268     -2.1018  C       1  LIG       0.0000
     9  C9        -0.2688     -0.0706     -0.7476  C       1  LIG       0.0000
    10  H10       -2.7880      0.0269      1.8532  H       1  LIG       0.0000
    11  H11       -0.3228     -1.1040      2.1914  H       1  LIG       0.0000
    12  H12        0.4323      0.4850      2.7677  H       1  LIG       0.0000
    13  H13       -0.1555      2.0830      0.9916  H       1  LIG       0.0000
    14  H14        1.8111      0.7883      0.4984  H       1  LIG       0.0000
    15  H15        1.9503     -1.1034     -0.6457  H       1  LIG       0.0000
    16  H16        2.3464     -0.2089     -2.1542  H       1  LIG       0.0000
    17  H17        0.7304     -0.2923     -3.0849  H       1  LIG       0.0000
    18  H18        0.1138      1.1991     -2.4609  H       1  LIG       0.0000
    19  H19       -1.0952     -0.6171     -1.2000  H       1  LIG       0.0000
@<TRIPOS>BOND
    1     6    14  1
    2     5    13  1
    3     5     6  1
    4     6     7  1
    5     6     9  1
    6     3     5  1
    7     4     5  1
    8     7    15  1
    9     9    19  1
   10     2    10  1
   11     2     3  1
   12     1     2  2
   13     7    16  1
   14     7     8  1
   15     3     9  1
   16     8     9  1
   17     3     4  1
   18     4    11  1
   19     4    12  1
   20     8    17  1
   21     8    18  1
