@<TRIPOS>MOLECULE
generated_molecule
20 20 0 0 0
SMALL
NO_CHARGES

@<TRIPOS>ATOM
     1  C1        -1.9105     -0.8641      0.3203  C       1  LIG       0.0000
     2  N2        -0.5433     -0.4811      0.6203  N       1  LIG       0.0000
     3  C3        -0.3404      0.9511      0.8105  C       1  LIG       0.0000
     4  C4         0.1842      1.6899     -0.4756  C       1  LIG       0.0000
     5  C5         0.7801      0.7023     -1.5836  C       1  LIG       0.0000
     6  O6         1.2116     -0.5564     -1.2907  O       1  LIG       0.0000
     7  C7         1.6577     -1.1267     -0.1736  C       1  LIG       0.0000
     8  O8         2.8202     -1.4582     -0.1666  O       1  LIG       0.0000
     9  C9         0.5940     -1.3007      0.9407  C       1  LIG       0.0000
    10  H10       -2.5590     -0.7080      1.1889  H       1  LIG       0.0000
    11  H11       -2.2405     -0.2318     -0.4964  H       1  LIG       0.0000
    12  H12       -1.9735     -1.9112      0.0333  H       1  LIG       0.0000
    13  H13       -1.2214      0.7608      1.3588  H       1  LIG       0.0000
    14  H14        0.3095      1.6420      1.3472  H       1  LIG       0.0000
    15  H15        0.7620      2.4179      0.0725  H       1  LIG       0.0000
    16  H16       -0.4497      2.2021     -1.1966  H       1  LIG       0.0000
    17  H17        0.5905     -0.0706     -2.2808  H       1  LIG       0.0000
    18  H18        1.0465      1.6552     -1.9648  H       1  LIG       0.0000
    19  H19        0.2423     -2.3079      1.0487  H       1  LIG       0.0000
    20  H20        1.0397     -1.0045      1.8873  H       1  LIG       0.0000
@<TRIPOS>BOND
    1     4    15  1
    2     3    13  1
    3     3    14  1
    4     3     4  1
    5     4    16  1
    6     4     5  1
    7     2     3  1
    8     5    17  1
    9     5    18  1
   10     5     6  1
   11     1     2  1
   12     2     9  1
   13     1    11  1
   14     9    20  1
   15     6     7  1
   16     1    10  1
   17     1    12  1
   18     7     9  1
   19     9    19  1
   20     7     8  2
