@<TRIPOS>MOLECULE
generated_molecule
21 21 0 0 0
SMALL
NO_CHARGES

@<TRIPOS>ATOM
     1  C1        -0.3307      4.4141     -0.6629  C       1  LIG       0.0000
     2  C2         0.3042      3.2457      0.2324  C       1  LIG       0.0000
     3  C3        -0.0743      1.7881      0.2841  C       1  LIG       0.0000
     4  C4        -0.3359      0.5873      0.2988  C       1  LIG       0.0000
     5  C5        -0.6813     -0.8697      0.3655  C       1  LIG       0.0000
     6  O6        -0.4041     -1.2758     -0.9398  O       1  LIG       0.0000
     7  C7        -0.0626     -2.2301      0.0262  C       1  LIG       0.0000
     8  C8         1.1190     -2.7419     -0.8164  C       1  LIG       0.0000
     9  C9        -0.4801     -3.3353      1.0464  C       1  LIG       0.0000
    10  H10        0.4534      4.8775     -1.2641  H       1  LIG       0.0000
    11  H11       -0.8353      5.1947     -0.1067  H       1  LIG       0.0000
    12  H12       -1.0854      4.0297     -1.3686  H       1  LIG       0.0000
    13  H13        0.1614      3.3816      1.2913  H       1  LIG       0.0000
    14  H14        1.2443      3.4806     -0.2405  H       1  LIG       0.0000
    15  H15       -1.4972     -1.0895      1.0739  H       1  LIG       0.0000
    16  H16        0.8173     -2.9253     -1.8606  H       1  LIG       0.0000
    17  H17        1.5038     -3.6621     -0.3894  H       1  LIG       0.0000
    18  H18        1.9415     -2.0192     -0.8701  H       1  LIG       0.0000
    19  H19        0.0237     -3.2510      2.0167  H       1  LIG       0.0000
    20  H20       -0.2281     -4.2847      0.6110  H       1  LIG       0.0000
    21  H21       -1.5536     -3.3147      1.2728  H       1  LIG       0.0000
@<TRIPOS>BOND
    1     5     6  1
    2     6     7  1
    3     2    13  1
    4     1    11  1
    5     8    18  1
    6     8    16  1
    7     2     3  1
    8     1     2  1
    9     2    14  1
   10     1    10  1
   11     3     4  3
   12     1    12  1
   13     4     5  1
   14     5     7  1
   15     5    15  1
   16     7     8  1
   17     8    17  1
   18     7     9  1
   19     9    19  1
   20     9    21  1
   21     9    20  1
