@<TRIPOS>MOLECULE
generated_molecule
20 19 0 0 0
SMALL
NO_CHARGES

@<TRIPOS>ATOM
     1  C1         0.8977      1.2234     -1.4848  C       1  LIG       0.0000
     2  C2         0.3324      0.2524     -0.3924  C       1  LIG       0.0000
     3  C3         0.3802     -1.2352     -0.8130  C       1  LIG       0.0000
     4  C4         1.0526      0.9507      0.7673  C       1  LIG       0.0000
     5  C5        -1.1397      0.1628      0.1156  C       1  LIG       0.0000
     6  O6        -2.4784     -0.3417     -0.0423  O       1  LIG       0.0000
     7  C7        -1.0592     -0.6435      1.3516  C       1  LIG       0.0000
     8  C8        -0.9801     -1.3006      2.3463  C       1  LIG       0.0000
     9  H9         0.1256      1.9347     -1.8313  H       1  LIG       0.0000
    10  H10        1.2600      0.6759     -2.3517  H       1  LIG       0.0000
    11  H11        1.7073      1.8128     -1.0730  H       1  LIG       0.0000
    12  H12       -0.6324     -1.6737     -0.8881  H       1  LIG       0.0000
    13  H13        0.9203     -1.7757     -0.0644  H       1  LIG       0.0000
    14  H14        0.8656     -1.3532     -1.7787  H       1  LIG       0.0000
    15  H15        0.5057      1.8501      1.0902  H       1  LIG       0.0000
    16  H16        1.1078      0.2867      1.6198  H       1  LIG       0.0000
    17  H17        2.0511      1.2532      0.4733  H       1  LIG       0.0000
    18  H18       -1.2207      1.0484     -0.3673  H       1  LIG       0.0000
    19  H19       -2.7833     -1.2237      0.0822  H       1  LIG       0.0000
    20  H20       -0.9126     -1.9040      3.2406  H       1  LIG       0.0000
@<TRIPOS>BOND
    1     5    18  1
    2     8    20  1
    3     7     8  3
    4     5     7  1
    5     5     6  1
    6     6    19  1
    7     2     5  1
    8     4    15  1
    9     1    10  1
   10     1     9  1
   11     1     2  1
   12     1    11  1
   13     2     4  1
   14     4    16  1
   15     4    17  1
   16     2     3  1
   17     3    14  1
   18     3    13  1
   19     3    12  1
