@<TRIPOS>MOLECULE
generated_molecule
18 19 0 0 0
SMALL
NO_CHARGES

@<TRIPOS>ATOM
     1  O1        -0.7811      1.6639     -2.6080  O       1  LIG       0.0000
     2  C2        -0.5792      1.0892     -1.5451  C       1  LIG       0.0000
     3  C3        -1.0974     -0.3153     -1.3356  C       1  LIG       0.0000
     4  C4        -0.4515     -0.8502     -0.0373  C       1  LIG       0.0000
     5  C5         0.9602     -0.3567      0.3175  C       1  LIG       0.0000
     6  C6         0.5687     -1.2570      1.5019  C       1  LIG       0.0000
     7  N7        -0.4387     -0.1872      1.2803  N       1  LIG       0.0000
     8  C8         0.0987      1.0861      0.9294  C       1  LIG       0.0000
     9  C9         0.1664      1.6128     -0.3518  C       1  LIG       0.0000
    10  H10       -2.1709     -0.4412     -1.2008  H       1  LIG       0.0000
    11  H11       -0.8678     -0.7846     -2.3097  H       1  LIG       0.0000
    12  H12       -0.7985     -1.8765      0.1086  H       1  LIG       0.0000
    13  H13        1.1725      0.6374      0.7331  H       1  LIG       0.0000
    14  H14        1.6263     -0.6469     -0.4790  H       1  LIG       0.0000
    15  H15        0.1149     -2.2376      1.3976  H       1  LIG       0.0000
    16  H16        1.3134     -1.2320      2.3076  H       1  LIG       0.0000
    17  H17        0.3879      1.6014      1.8596  H       1  LIG       0.0000
    18  H18        0.7761      2.4943     -0.5682  H       1  LIG       0.0000
@<TRIPOS>BOND
    1     4    12  1
    2     5    13  1
    3     4     7  1
    4     4     5  1
    5     3     4  1
    6     3    10  1
    7     7     8  1
    8     6     7  1
    9     6    15  1
   10     1     2  2
   11     2     9  1
   12     2     3  1
   13     5     6  1
   14     5    14  1
   15     8     9  2
   16     9    18  1
   17     8    17  1
   18     3    11  1
   19     6    16  1
