@<TRIPOS>MOLECULE
generated_molecule
17 16 0 0 0
SMALL
NO_CHARGES

@<TRIPOS>ATOM
     1  C1         2.1798      2.4482     -0.1595  C       1  LIG       0.0000
     2  C2         1.3733      1.3816      0.4124  C       1  LIG       0.0000
     3  C3         0.6682      0.5004      0.7841  C       1  LIG       0.0000
     4  C4        -0.2138     -0.5369      1.1859  C       1  LIG       0.0000
     5  O5        -0.5776     -0.9870      2.2428  O       1  LIG       0.0000
     6  C6        -0.6929     -1.0729     -0.2245  C       1  LIG       0.0000
     7  C7        -1.8854     -0.2905      0.3763  C       1  LIG       0.0000
     8  C8        -0.5625     -2.2602     -1.0625  C       1  LIG       0.0000
     9  O9        -0.3704     -2.2776     -2.3258  O       1  LIG       0.0000
    10  H10        1.8814      3.4183      0.2487  H       1  LIG       0.0000
    11  H11        2.0005      2.3986     -1.2092  H       1  LIG       0.0000
    12  H12        3.2665      2.3190      0.0320  H       1  LIG       0.0000
    13  H13       -0.0816     -1.2657     -1.0406  H       1  LIG       0.0000
    14  H14       -2.0479      0.5353     -0.2747  H       1  LIG       0.0000
    15  H15       -1.6867      0.0442      1.3644  H       1  LIG       0.0000
    16  H16       -2.6885     -1.0020      0.3291  H       1  LIG       0.0000
    17  H17       -0.5626     -3.3527     -0.6790  H       1  LIG       0.0000
@<TRIPOS>BOND
    1     8     9  2
    2     1    10  1
    3     8    17  1
    4     6     8  1
    5     1    11  1
    6     1     2  1
    7     1    12  1
    8     2     3  3
    9     3     4  1
   10     6    13  1
   11     4     6  1
   12     6     7  1
   13     4     5  2
   14     7    14  1
   15     7    16  1
   16     7    15  1
