@<TRIPOS>MOLECULE
generated_molecule
16 16 0 0 0
SMALL
NO_CHARGES

@<TRIPOS>ATOM
     1  O1         0.4074     -2.1153      0.6042  O       1  LIG       0.0000
     2  C2         0.1928     -1.4027     -0.5528  C       1  LIG       0.0000
     3  C3        -0.8918     -0.3423     -0.2755  C       1  LIG       0.0000
     4  N4        -1.1271      0.4146     -1.4939  N       1  LIG       0.0000
     5  C5        -0.5674      1.5636     -0.8664  C       1  LIG       0.0000
     6  O6        -0.2604      2.6384     -1.3493  O       1  LIG       0.0000
     7  C7        -0.5411      0.9418      0.4964  C       1  LIG       0.0000
     8  C8         0.7753      0.8981      1.1767  C       1  LIG       0.0000
     9  C9         1.8182      0.8218      1.7236  C       1  LIG       0.0000
    10  H10        0.3038     -1.9396      1.5078  H       1  LIG       0.0000
    11  H11       -0.1661     -1.9042     -1.3925  H       1  LIG       0.0000
    12  H12        1.2288     -1.0814     -0.7654  H       1  LIG       0.0000
    13  H13       -1.7727     -0.7337      0.2168  H       1  LIG       0.0000
    14  H14       -0.8059      0.2191     -2.4292  H       1  LIG       0.0000
    15  H15       -1.3373      1.2943      1.1918  H       1  LIG       0.0000
    16  H16        2.7436      0.7276      2.2077  H       1  LIG       0.0000
@<TRIPOS>BOND
    1     5     6  2
    2     4    14  1
    3     4     5  1
    4     5     7  1
    5     3     4  1
    6     2    11  1
    7     1    10  1
    8     1     2  1
    9     2     3  1
   10     2    12  1
   11     3     7  1
   12     3    13  1
   13     7     8  1
   14     7    15  1
   15     8     9  3
   16     9    16  1
