@<TRIPOS>MOLECULE
generated_molecule
18 18 0 0 0
SMALL
NO_CHARGES

@<TRIPOS>ATOM
     1  O1         0.8086     -2.1654      0.1963  O       1  LIG       0.0000
     2  C2         1.3027     -1.4629     -0.9024  C       1  LIG       0.0000
     3  C3         0.6739      0.0035     -1.1361  C       1  LIG       0.0000
     4  C4        -0.0558      1.0155     -0.2159  C       1  LIG       0.0000
     5  O5        -0.0594      2.2039     -0.8566  O       1  LIG       0.0000
     6  C6        -0.7862      1.6119      1.0315  C       1  LIG       0.0000
     7  C7        -0.4328      0.1273      0.9733  C       1  LIG       0.0000
     8  C8        -1.5769     -0.7337      1.3002  C       1  LIG       0.0000
     9  N9        -2.4366     -1.4792      1.6019  N       1  LIG       0.0000
    10  H10        0.0082     -2.4567      0.5996  H       1  LIG       0.0000
    11  H11        2.3314     -1.3026     -0.8212  H       1  LIG       0.0000
    12  H12        1.0545     -2.3102     -1.5560  H       1  LIG       0.0000
    13  H13        1.4624      0.6310     -1.3621  H       1  LIG       0.0000
    14  H14       -0.0407     -0.3529     -1.8276  H       1  LIG       0.0000
    15  H15       -0.7469      2.8608     -0.8682  H       1  LIG       0.0000
    16  H16       -1.8150      1.6224      1.4233  H       1  LIG       0.0000
    17  H17       -0.2171      2.4909      1.1605  H       1  LIG       0.0000
    18  H18        0.5260     -0.3036      1.2595  H       1  LIG       0.0000
@<TRIPOS>BOND
    1     3    14  1
    2     5    15  1
    3     4     5  1
    4     1    10  1
    5     7    18  1
    6     2    11  1
    7     3     4  1
    8     2     3  1
    9     3    13  1
   10     4     7  1
   11     4     6  1
   12     7     8  1
   13     6     7  1
   14     8     9  3
   15     1     2  1
   16     2    12  1
   17     6    16  1
   18     6    17  1
