@<TRIPOS>MOLECULE
generated_molecule
13 14 0 0 0
SMALL
NO_CHARGES

@<TRIPOS>ATOM
     1  O1         1.4656      1.8383     -0.1575  O       1  LIG       0.0000
     2  C2         0.9079      0.7843     -0.1055  C       1  LIG       0.0000
     3  C3         1.4214     -0.5591      0.4192  C       1  LIG       0.0000
     4  C4         0.8308     -1.9366      0.1668  C       1  LIG       0.0000
     5  N5         0.5213     -0.8304     -0.6739  N       1  LIG       0.0000
     6  C6        -0.4689      0.3328     -0.5335  C       1  LIG       0.0000
     7  C7        -1.5070      1.3097     -0.1140  C       1  LIG       0.0000
     8  C8        -2.4576      2.0841      0.1633  C       1  LIG       0.0000
     9  H9         2.2529     -0.7113      1.1233  H       1  LIG       0.0000
    10  H10        1.0666     -2.6722     -0.5839  H       1  LIG       0.0000
    11  H11        0.4346     -2.3112      1.1124  H       1  LIG       0.0000
    12  H12       -1.2162     -0.0458     -1.1942  H       1  LIG       0.0000
    13  H13       -3.2514      2.7174      0.3775  H       1  LIG       0.0000
@<TRIPOS>BOND
    1     6    12  1
    2     3     9  1
    3     3     5  1
    4     5     6  1
    5     4     5  1
    6     2     3  1
    7     3     4  1
    8     1     2  2
    9     2     6  1
   10     6     7  1
   11     4    10  1
   12     4    11  1
   13     7     8  3
   14     8    13  1
