@<TRIPOS>MOLECULE
generated_molecule
16 19 0 0 0
SMALL
NO_CHARGES

@<TRIPOS>ATOM
     1  O1         1.4555     -0.4857      1.3208  O       1  LIG       0.0000
     2  C2         0.5533     -0.3222      0.3601  C       1  LIG       0.0000
     3  C3         1.3933     -0.2667     -0.8734  C       1  LIG       0.0000
     4  C4         0.4484      0.8795     -0.7767  C       1  LIG       0.0000
     5  N5         0.0009      0.6977      0.6883  N       1  LIG       0.0000
     6  C6        -0.7088     -0.6299      1.1506  C       1  LIG       0.0000
     7  C7        -1.4782      0.6740      0.9369  C       1  LIG       0.0000
     8  C8        -0.7446      0.1435     -0.3069  C       1  LIG       0.0000
     9  O9        -1.7893     -0.0810     -1.1096  O       1  LIG       0.0000
    10  H10        1.9125     -1.3692      1.5374  H       1  LIG       0.0000
    11  H11        1.3369     -1.1333     -1.5548  H       1  LIG       0.0000
    12  H12        2.4453      0.0833     -0.8733  H       1  LIG       0.0000
    13  H13        0.5384      1.7045     -1.5261  H       1  LIG       0.0000
    14  H14       -1.2410     -1.4140      1.5595  H       1  LIG       0.0000
    15  H15       -2.2410      1.1313      1.4505  H       1  LIG       0.0000
    16  H16       -1.8816      0.3882     -1.9832  H       1  LIG       0.0000
@<TRIPOS>BOND
    1     3    11  1
    2     3    12  1
    3     3     4  1
    4     2     3  1
    5     4    13  1
    6     9    16  1
    7     8     9  1
    8     4     8  1
    9     4     5  1
   10     2     8  1
   11     7     8  1
   12     1     2  1
   13     1    10  1
   14     2     6  1
   15     5     6  1
   16     5     7  1
   17     6     7  1
   18     6    14  1
   19     7    15  1
