@<TRIPOS>MOLECULE
generated_molecule
16 16 0 0 0
SMALL
NO_CHARGES

@<TRIPOS>ATOM
     1  C1        -0.5866      0.9995      2.1903  C       1  LIG       0.0000
     2  C2         0.0409      0.9299      0.7317  C       1  LIG       0.0000
     3  C3         0.0169     -0.2160     -0.2520  C       1  LIG       0.0000
     4  C4         0.7019     -0.0521     -1.4146  C       1  LIG       0.0000
     5  O5         1.2929      1.1095     -1.6509  O       1  LIG       0.0000
     6  N6         0.7044     -1.1424     -2.1987  N       1  LIG       0.0000
     7  C7        -0.0307     -2.0431     -1.5492  C       1  LIG       0.0000
     8  N8        -0.4944     -1.4976     -0.3787  N       1  LIG       0.0000
     9  H9        -1.5325      0.3765      2.2950  H       1  LIG       0.0000
    10  H10        0.0271      0.5894      2.9771  H       1  LIG       0.0000
    11  H11       -0.8350      2.0068      2.3718  H       1  LIG       0.0000
    12  H12        1.0869      1.0108      0.7936  H       1  LIG       0.0000
    13  H13       -0.4997      1.7618      0.3671  H       1  LIG       0.0000
    14  H14        1.4960      1.2883     -2.5356  H       1  LIG       0.0000
    15  H15       -0.1984     -3.0860     -1.9232  H       1  LIG       0.0000
    16  H16       -1.1897     -2.0354      0.1764  H       1  LIG       0.0000
@<TRIPOS>BOND
    1     5    14  1
    2     4     5  1
    3     4     6  ar
    4     3     4  ar
    5     2    12  1
    6     6     7  ar
    7     1    10  1
    8     2     3  1
    9     3     8  ar
   10     1     2  1
   11     2    13  1
   12     1     9  1
   13     1    11  1
   14     7     8  ar
   15     7    15  1
   16     8    16  1
