@<TRIPOS>MOLECULE
generated_molecule
21 22 0 0 0
SMALL
NO_CHARGES

@<TRIPOS>ATOM
     1  C1         1.0045      1.3932     -0.8146  C       1  LIG       0.0000
     2  C2        -0.3873      1.1300     -0.2553  C       1  LIG       0.0000
     3  C3        -1.1678      1.8724      0.8824  C       1  LIG       0.0000
     4  O4        -1.2770      0.6245      1.5171  O       1  LIG       0.0000
     5  C5        -0.3977     -0.0512      0.7073  C       1  LIG       0.0000
     6  C6        -0.0090     -1.3142      1.4642  C       1  LIG       0.0000
     7  C7         0.3458     -1.1673     -0.0189  C       1  LIG       0.0000
     8  C8        -0.3973     -1.9313     -1.1085  C       1  LIG       0.0000
     9  O9         1.6513     -1.0106     -0.3606  O       1  LIG       0.0000
    10  H10        1.7536      0.7388     -0.3653  H       1  LIG       0.0000
    11  H11        1.0000      1.1961     -1.8926  H       1  LIG       0.0000
    12  H12        1.2975      2.4186     -0.6342  H       1  LIG       0.0000
    13  H13       -1.0871      1.1989     -1.0934  H       1  LIG       0.0000
    14  H14       -0.6635      2.8258      0.6827  H       1  LIG       0.0000
    15  H15       -2.1208      2.0860      1.3939  H       1  LIG       0.0000
    16  H16       -0.8763     -1.3742      2.0896  H       1  LIG       0.0000
    17  H17        0.8771     -1.8309      1.8132  H       1  LIG       0.0000
    18  H18       -0.6331     -1.2873     -1.9586  H       1  LIG       0.0000
    19  H19        0.2443     -2.7358     -1.4196  H       1  LIG       0.0000
    20  H20       -1.3574     -2.3474     -0.7706  H       1  LIG       0.0000
    21  H21        2.2003     -0.4340      0.1418  H       1  LIG       0.0000
@<TRIPOS>BOND
    1     3    14  1
    2     3    15  1
    3     1    11  1
    4     2     3  1
    5     3     4  1
    6     2    13  1
    7     1     2  1
    8     2     5  1
    9     1    10  1
   10     1    12  1
   11     4     5  1
   12     5     7  1
   13     5     6  1
   14     8    19  1
   15     8    18  1
   16     7     8  1
   17     7     9  1
   18     6     7  1
   19     8    20  1
   20     9    21  1
   21     6    17  1
   22     6    16  1
