@<TRIPOS>MOLECULE
generated_molecule
20 21 0 0 0
SMALL
NO_CHARGES

@<TRIPOS>ATOM
     1  C1        -0.9731      0.2921     -1.7686  C       1  LIG       0.0000
     2  C2        -0.6827      0.4635     -0.2925  C       1  LIG       0.0000
     3  C3        -1.0095      1.0856      0.8462  C       1  LIG       0.0000
     4  C4        -0.0902      0.8144      2.0066  C       1  LIG       0.0000
     5  C5         1.0827      0.1095      1.3353  C       1  LIG       0.0000
     6  C6         2.0140     -0.3323      0.2155  C       1  LIG       0.0000
     7  C7         0.4631     -0.4328     -0.0037  C       1  LIG       0.0000
     8  C8        -0.4198     -1.2983     -0.9123  C       1  LIG       0.0000
     9  H9        -0.4741      1.0668     -2.3234  H       1  LIG       0.0000
    10  H10       -2.0283      0.3112     -1.9067  H       1  LIG       0.0000
    11  H11       -0.5825     -0.6747     -2.1745  H       1  LIG       0.0000
    12  H12       -1.8577      1.7366      0.9033  H       1  LIG       0.0000
    13  H13       -0.2223      1.8627      2.4522  H       1  LIG       0.0000
    14  H14       -0.1067      0.1576      2.8752  H       1  LIG       0.0000
    15  H15        1.8261      0.1582      2.1315  H       1  LIG       0.0000
    16  H16        2.7754      0.4001      0.4475  H       1  LIG       0.0000
    17  H17        2.3219     -1.1751     -0.3381  H       1  LIG       0.0000
    18  H18       -1.4838     -1.2655     -0.6012  H       1  LIG       0.0000
    19  H19       -0.4355     -0.9438     -1.9678  H       1  LIG       0.0000
    20  H20       -0.1170     -2.3359     -0.9244  H       1  LIG       0.0000
@<TRIPOS>BOND
    1     3    12  1
    2     4    14  1
    3     4    13  1
    4     3     4  1
    5     2     3  2
    6     1    10  1
    7     4     5  1
    8     1     2  1
    9     2     7  1
   10     1    11  1
   11     1     9  1
   12     5     7  1
   13     5    15  1
   14     5     6  1
   15     6    17  1
   16     6     7  1
   17     7     8  1
   18     6    16  1
   19     8    19  1
   20     8    18  1
   21     8    20  1
