@<TRIPOS>MOLECULE
generated_molecule
13 13 0 0 0
SMALL
NO_CHARGES

@<TRIPOS>ATOM
     1  N1        -0.8458     -1.9986     -0.2718  N       1  LIG       0.0000
     2  C2        -0.5996     -1.5639      0.9009  C       1  LIG       0.0000
     3  N3        -0.7030     -0.2398      1.1921  N       1  LIG       0.0000
     4  C4         0.0017      0.5409      0.2329  C       1  LIG       0.0000
     5  C5         0.0607      0.4859     -1.1360  C       1  LIG       0.0000
     6  N6         0.9114      1.4204     -1.6120  N       1  LIG       0.0000
     7  C7         1.3544      2.0467     -0.5299  C       1  LIG       0.0000
     8  O8         0.8082      1.5620      0.6068  O       1  LIG       0.0000
     9  H9        -0.8000     -2.9491     -0.5823  H       1  LIG       0.0000
    10  H10       -0.3355     -2.1822      1.7549  H       1  LIG       0.0000
    11  H11       -1.4335      0.2367      1.6923  H       1  LIG       0.0000
    12  H12       -0.4898     -0.1947     -1.7463  H       1  LIG       0.0000
    13  H13        2.0707      2.8357     -0.5016  H       1  LIG       0.0000
@<TRIPOS>BOND
    1     5    12  1
    2     1     9  1
    3     1     2  2
    4     5     6  ar
    5     4     5  ar
    6     6     7  ar
    7     2    10  1
    8     2     3  1
    9     3     4  1
   10     4     8  ar
   11     7    13  1
   12     7     8  ar
   13     3    11  1
