@<TRIPOS>MOLECULE
generated_molecule
20 22 0 0 0
SMALL
NO_CHARGES

@<TRIPOS>ATOM
     1  C1        -1.6720     -0.0075     -0.0530  C       1  LIG       0.0000
     2  C2        -0.3613     -0.6602     -0.4101  C       1  LIG       0.0000
     3  O3         0.4077     -1.7801     -0.2487  O       1  LIG       0.0000
     4  C4         0.7725      0.3042      0.0440  C       1  LIG       0.0000
     5  N5         1.8501      1.3944      0.0829  N       1  LIG       0.0000
     6  C6         1.8596      0.0934     -0.6838  C       1  LIG       0.0000
     7  C7         0.3454     -0.2798     -0.1648  C       1  LIG       0.0000
     8  C8        -0.8952      0.5972      0.4133  C       1  LIG       0.0000
     9  C9         0.1748      0.2073      1.3571  C       1  LIG       0.0000
    10  H10       -2.4024     -0.4357     -0.7475  H       1  LIG       0.0000
    11  H11       -1.9236     -0.1525      0.9620  H       1  LIG       0.0000
    12  H12       -1.7075      1.1043     -0.2262  H       1  LIG       0.0000
    13  H13       -0.8925     -0.9895     -1.3587  H       1  LIG       0.0000
    14  H14        1.3426     -1.7540     -0.3749  H       1  LIG       0.0000
    15  H15        2.6191      1.8215      0.2191  H       1  LIG       0.0000
    16  H16        2.7159     -0.1617     -1.2691  H       1  LIG       0.0000
    17  H17        0.1890     -1.2047     -0.7223  H       1  LIG       0.0000
    18  H18       -1.7731      0.0207      0.2333  H       1  LIG       0.0000
    19  H19       -0.9930      1.6534      0.5857  H       1  LIG       0.0000
    20  H20        0.3439      0.2293      2.3616  H       1  LIG       0.0000
@<TRIPOS>BOND
    1     5    15  1
    2     1    11  1
    3     1    12  1
    4     5     6  1
    5     4     5  1
    6     6    16  1
    7     1    10  1
    8     1     2  1
    9     4     6  1
   10     6     7  1
   11     8    19  1
   12     2     4  1
   13     4     9  1
   14     2    13  1
   15     2     3  1
   16     7     8  1
   17     7    17  1
   18     7     9  1
   19     8     9  1
   20     8    18  1
   21     9    20  1
   22     3    14  1
