@<TRIPOS>MOLECULE
generated_molecule
25 25 0 0 0
SMALL
NO_CHARGES

@<TRIPOS>ATOM
     1  C1         1.5466      0.5373      1.8471  C       1  LIG       0.0000
     2  C2         0.8750      1.5074      0.8615  C       1  LIG       0.0000
     3  C3         0.0689      0.6639     -0.0640  C       1  LIG       0.0000
     4  C4        -1.2754      0.4298     -0.2608  C       1  LIG       0.0000
     5  C5        -2.2822      1.6023     -0.2163  C       1  LIG       0.0000
     6  C6        -1.5762     -1.0470     -0.4964  C       1  LIG       0.0000
     7  C7        -0.4309     -2.1409     -0.8944  C       1  LIG       0.0000
     8  C8         1.0117     -1.5013     -1.0357  C       1  LIG       0.0000
     9  C9         1.3290      0.0015     -0.5585  C       1  LIG       0.0000
    10  H10        0.7944      0.1795      2.5703  H       1  LIG       0.0000
    11  H11        2.3548      1.0231      2.3004  H       1  LIG       0.0000
    12  H12        1.8570     -0.3802      1.3130  H       1  LIG       0.0000
    13  H13        1.5640      2.1118      0.2651  H       1  LIG       0.0000
    14  H14        0.2860      2.2352      1.4545  H       1  LIG       0.0000
    15  H15       -3.1551      1.4662     -0.8852  H       1  LIG       0.0000
    16  H16       -2.6529      1.7311      0.7976  H       1  LIG       0.0000
    17  H17       -1.8049      2.5302     -0.5180  H       1  LIG       0.0000
    18  H18       -2.2762     -1.0853     -1.3137  H       1  LIG       0.0000
    19  H19       -1.9771     -1.3583      0.4447  H       1  LIG       0.0000
    20  H20        0.2098     -2.8705     -1.4119  H       1  LIG       0.0000
    21  H21       -1.2522     -2.8162     -0.6028  H       1  LIG       0.0000
    22  H22        1.2543     -1.4567     -2.0729  H       1  LIG       0.0000
    23  H23        1.6888     -2.1084     -0.4745  H       1  LIG       0.0000
    24  H24        2.1335     -0.0143      0.2078  H       1  LIG       0.0000
    25  H25        1.7093      0.7599     -1.2568  H       1  LIG       0.0000
@<TRIPOS>BOND
    1     5    16  1
    2     5    15  1
    3     5    17  1
    4     4     5  1
    5     6    19  1
    6     6    18  1
    7     4     6  1
    8     6     7  1
    9     3     4  2
   10     1    11  1
   11     2    13  1
   12     2     3  1
   13     3     9  1
   14     7    20  1
   15     7    21  1
   16     7     8  1
   17     1     2  1
   18     2    14  1
   19     1    10  1
   20     1    12  1
   21     8    22  1
   22     8     9  1
   23     8    23  1
   24     9    24  1
   25     9    25  1
