@<TRIPOS>MOLECULE
generated_molecule
23 23 0 0 0
SMALL
NO_CHARGES

@<TRIPOS>ATOM
     1  C1        -0.7188      1.1944     -2.4049  C       1  LIG       0.0000
     2  C2        -0.8670      0.6375     -0.9415  C       1  LIG       0.0000
     3  O3         0.0984     -0.1574     -1.5295  O       1  LIG       0.0000
     4  C4         1.0105     -1.0131     -0.9100  C       1  LIG       0.0000
     5  C5         0.5965     -0.8945      0.5921  C       1  LIG       0.0000
     6  C6         1.6461     -0.2498      1.5611  C       1  LIG       0.0000
     7  O7         0.3018     -2.2295      0.8748  O       1  LIG       0.0000
     8  C8        -0.7439     -0.0908      0.4598  C       1  LIG       0.0000
     9  C9        -1.0579      0.8353      1.6649  C       1  LIG       0.0000
    10  H10       -1.0024      0.4310     -3.1124  H       1  LIG       0.0000
    11  H11        0.3014      1.5078     -2.6557  H       1  LIG       0.0000
    12  H12       -1.3590      2.0898     -2.5803  H       1  LIG       0.0000
    13  H13       -1.6554      1.2642     -0.5647  H       1  LIG       0.0000
    14  H14        2.0459     -0.7491     -1.0429  H       1  LIG       0.0000
    15  H15        0.8261     -1.9645     -1.4229  H       1  LIG       0.0000
    16  H16        1.4289      0.8215      1.7424  H       1  LIG       0.0000
    17  H17        2.6561     -0.2812      1.1622  H       1  LIG       0.0000
    18  H18        1.5813     -0.7845      2.4710  H       1  LIG       0.0000
    19  H19       -0.3784     -2.5528      0.2856  H       1  LIG       0.0000
    20  H20       -1.3592     -0.9624      0.4514  H       1  LIG       0.0000
    21  H21       -0.2940      1.6150      1.7292  H       1  LIG       0.0000
    22  H22       -1.0256      0.2792      2.6173  H       1  LIG       0.0000
    23  H23       -2.0312      1.2540      1.5530  H       1  LIG       0.0000
@<TRIPOS>BOND
    1     4    15  1
    2     1    11  1
    3     3     4  1
    4     2     3  1
    5     4    14  1
    6     4     5  1
    7     1    10  1
    8     1     2  1
    9     1    12  1
   10     7    19  1
   11     2    13  1
   12     2     8  1
   13     5     7  1
   14     5     8  1
   15     5     6  1
   16     6    16  1
   17     8    20  1
   18     8     9  1
   19     6    18  1
   20     6    17  1
   21     9    21  1
   22     9    22  1
   23     9    23  1
