@<TRIPOS>MOLECULE
generated_molecule
15 17 0 0 0
SMALL
NO_CHARGES

@<TRIPOS>ATOM
     1  O1         0.1360     -0.9817      2.0705  O       1  LIG       0.0000
     2  C2        -0.0700     -0.2637      0.9540  C       1  LIG       0.0000
     3  C3        -1.4472      0.1140      0.3804  C       1  LIG       0.0000
     4  O4        -1.4476      0.3847     -1.0577  O       1  LIG       0.0000
     5  C5        -0.0946      0.4020     -1.5010  C       1  LIG       0.0000
     6  C6         0.1084      0.8603     -0.0300  C       1  LIG       0.0000
     7  C7         1.2377     -0.1897      0.1080  C       1  LIG       0.0000
     8  C8         0.9974     -0.6509     -1.3286  C       1  LIG       0.0000
     9  O9         1.5124     -1.5107     -2.0495  O       1  LIG       0.0000
    10  H10        0.8658     -0.8313      2.6598  H       1  LIG       0.0000
    11  H11       -1.8080      1.0905      0.6750  H       1  LIG       0.0000
    12  H12       -1.9428     -0.7713      0.6754  H       1  LIG       0.0000
    13  H13        0.0235      0.8030     -2.5180  H       1  LIG       0.0000
    14  H14       -0.2646      1.8015      0.3211  H       1  LIG       0.0000
    15  H15        2.1936     -0.2567      0.6406  H       1  LIG       0.0000
@<TRIPOS>BOND
    1     3    11  1
    2     3     4  1
    3     4     5  1
    4     3    12  1
    5     2     3  1
    6     5    13  1
    7     5     6  1
    8     5     8  1
    9     6    14  1
   10     1     2  1
   11     2     6  1
   12     2     7  1
   13     1    10  1
   14     6     7  1
   15     7     8  1
   16     8     9  2
   17     7    15  1
