@<TRIPOS>MOLECULE
generated_molecule
17 17 0 0 0
SMALL
NO_CHARGES

@<TRIPOS>ATOM
     1  N1         0.5657      1.9712      0.5750  N       1  LIG       0.0000
     2  C2        -0.7364      1.3784      0.6331  C       1  LIG       0.0000
     3  C3        -0.4995      0.2383     -0.3889  C       1  LIG       0.0000
     4  O4        -1.0492     -1.0558     -0.2989  O       1  LIG       0.0000
     5  C5        -0.1755     -2.1600     -0.2592  C       1  LIG       0.0000
     6  C6         1.0186     -1.4767      0.4071  C       1  LIG       0.0000
     7  O7         0.6960     -0.4297     -0.3427  O       1  LIG       0.0000
     8  C8        -0.7272      1.1653     -1.5088  C       1  LIG       0.0000
     9  N9        -0.8630      1.8817     -2.3728  N       1  LIG       0.0000
    10  H10        1.2866      1.3001      0.4907  H       1  LIG       0.0000
    11  H11        0.5488      2.8712      0.2058  H       1  LIG       0.0000
    12  H12       -0.9880      1.0669      1.6893  H       1  LIG       0.0000
    13  H13       -1.6255      1.9516      0.3586  H       1  LIG       0.0000
    14  H14        0.3930     -2.6087     -1.0935  H       1  LIG       0.0000
    15  H15       -0.8268     -2.9178      0.1881  H       1  LIG       0.0000
    16  H16        1.0506     -1.1463      1.4791  H       1  LIG       0.0000
    17  H17        1.9317     -2.0296      0.2380  H       1  LIG       0.0000
@<TRIPOS>BOND
    1     2    13  1
    2     1    10  1
    3     1     2  1
    4     1    11  1
    5     2    12  1
    6     2     3  1
    7     3     8  1
    8     3     7  1
    9     3     4  1
   10     8     9  3
   11     6     7  1
   12     4     5  1
   13     6    17  1
   14     6    16  1
   15     5     6  1
   16     5    14  1
   17     5    15  1
