@<TRIPOS>MOLECULE
generated_molecule
13 14 0 0 0
SMALL
NO_CHARGES

@<TRIPOS>ATOM
     1  N1         0.6877      1.9752     -1.2676  N       1  LIG       0.0000
     2  C2         0.0282      0.9120     -0.9685  C       1  LIG       0.0000
     3  O3        -0.9752      0.3534     -1.6332  O       1  LIG       0.0000
     4  C4        -1.0430     -0.8317     -0.8407  C       1  LIG       0.0000
     5  C5        -0.1900     -1.6439      0.1478  C       1  LIG       0.0000
     6  C6        -0.0749     -0.0918      0.1260  C       1  LIG       0.0000
     7  C7         0.3670      0.5151      1.3454  C       1  LIG       0.0000
     8  C8         0.7376      1.0678      2.3624  C       1  LIG       0.0000
     9  H9         1.3977      1.9146     -1.9563  H       1  LIG       0.0000
    10  H10       -1.8490     -1.4218     -1.2267  H       1  LIG       0.0000
    11  H11        0.4800     -1.7211      0.9480  H       1  LIG       0.0000
    12  H12       -0.5945     -2.5745     -0.2825  H       1  LIG       0.0000
    13  H13        1.0283      1.5465      3.2458  H       1  LIG       0.0000
@<TRIPOS>BOND
    1     8    13  1
    2     7     8  3
    3     6     7  1
    4     4    10  1
    5     4     6  1
    6     2     6  1
    7     5     6  1
    8     3     4  1
    9     4     5  1
   10     1     2  1
   11     1     9  1
   12     2     3  1
   13     5    11  1
   14     5    12  1
