@<TRIPOS>MOLECULE
generated_molecule
25 25 0 0 0
SMALL
NO_CHARGES

@<TRIPOS>ATOM
     1  C1        -0.3815      2.3174     -1.3793  C       1  LIG       0.0000
     2  C2        -0.3071      1.3955     -0.0918  C       1  LIG       0.0000
     3  C3         0.3430      0.8267      1.1366  C       1  LIG       0.0000
     4  O4         0.2099     -0.5318      1.1330  O       1  LIG       0.0000
     5  C5        -0.2741     -0.0834     -0.4699  C       1  LIG       0.0000
     6  C6        -0.7433     -1.4046      0.0957  C       1  LIG       0.0000
     7  C7        -1.9269     -0.8664      0.8301  C       1  LIG       0.0000
     8  C8         0.7644     -1.1419     -0.0094  C       1  LIG       0.0000
     9  C9         2.1203     -1.2825     -0.7234  C       1  LIG       0.0000
    10  H10        0.4860      2.2198     -2.0426  H       1  LIG       0.0000
    11  H11       -1.2700      2.0616     -1.9737  H       1  LIG       0.0000
    12  H12       -0.4562      3.3983     -1.1521  H       1  LIG       0.0000
    13  H13       -0.9027      2.2971      0.3050  H       1  LIG       0.0000
    14  H14        1.3441      1.1998      1.0844  H       1  LIG       0.0000
    15  H15       -0.1192      1.0630      2.1050  H       1  LIG       0.0000
    16  H16        0.7753     -1.2910      1.3963  H       1  LIG       0.0000
    17  H17       -0.9786      0.1356     -1.2768  H       1  LIG       0.0000
    18  H18       -0.6664     -2.4166     -0.2527  H       1  LIG       0.0000
    19  H19       -1.6337     -0.5740      1.8270  H       1  LIG       0.0000
    20  H20       -2.3669      0.0177      0.3566  H       1  LIG       0.0000
    21  H21       -2.6641     -1.6575      0.8379  H       1  LIG       0.0000
    22  H22        1.1174     -1.6258      0.9085  H       1  LIG       0.0000
    23  H23        2.9257     -0.6950     -0.2273  H       1  LIG       0.0000
    24  H24        2.5242     -2.3460     -0.6718  H       1  LIG       0.0000
    25  H25        2.0801     -1.0161     -1.7453  H       1  LIG       0.0000
@<TRIPOS>BOND
    1     7    21  1
    2     7    20  1
    3     7    19  1
    4     6     7  1
    5     1    11  1
    6     6    18  1
    7     5     6  1
    8     6     8  1
    9     1    10  1
   10     1    12  1
   11     1     2  1
   12     2    13  1
   13     9    23  1
   14     9    25  1
   15     5     8  1
   16     2     5  1
   17     5    17  1
   18     8     9  1
   19     8    22  1
   20     2     3  1
   21     9    24  1
   22     3     4  1
   23     3    15  1
   24     3    14  1
   25     4    16  1
