@<TRIPOS>MOLECULE
generated_molecule
17 18 0 0 0
SMALL
NO_CHARGES

@<TRIPOS>ATOM
     1  O1        -1.5178     -0.9578      0.4173  O       1  LIG       0.0000
     2  C2        -0.5798     -0.0219      0.4640  C       1  LIG       0.0000
     3  C3        -0.5664      1.3463     -0.4809  C       1  LIG       0.0000
     4  C4         0.2572      2.7236     -0.6644  C       1  LIG       0.0000
     5  N5         0.3866      1.6698     -1.6158  N       1  LIG       0.0000
     6  C6        -0.0540     -1.5215      0.9687  C       1  LIG       0.0000
     7  C7         1.1952     -2.4186      0.5432  C       1  LIG       0.0000
     8  O8        -0.0790     -2.6783      0.1363  O       1  LIG       0.0000
     9  H9        -2.2980     -1.2747      0.0850  H       1  LIG       0.0000
    10  H10       -0.3231      0.7841      1.0263  H       1  LIG       0.0000
    11  H11       -1.5785      1.6688     -0.7491  H       1  LIG       0.0000
    12  H12        0.1108      3.1381      0.2763  H       1  LIG       0.0000
    13  H13        0.8008      3.3920     -1.3993  H       1  LIG       0.0000
    14  H14        1.0284      1.1442     -2.0515  H       1  LIG       0.0000
    15  H15       -0.3091     -1.7854      1.9959  H       1  LIG       0.0000
    16  H16        1.5500     -3.4880      0.6262  H       1  LIG       0.0000
    17  H17        1.9767     -1.7207      0.4218  H       1  LIG       0.0000
@<TRIPOS>BOND
    1     4    12  1
    2     5    14  1
    3     4     5  1
    4     3     5  1
    5     4    13  1
    6     3     4  1
    7     3    11  1
    8     2     3  1
    9     2    10  1
   10     1     2  1
   11     2     6  1
   12     1     9  1
   13     6     8  1
   14     6    15  1
   15     6     7  1
   16     7     8  1
   17     7    17  1
   18     7    16  1
