@<TRIPOS>MOLECULE
generated_molecule
19 21 0 0 0
SMALL
NO_CHARGES

@<TRIPOS>ATOM
     1  C1        -0.0693      1.9936      0.4550  C       1  LIG       0.0000
     2  C2         0.9225      0.8242      0.2280  C       1  LIG       0.0000
     3  C3         0.6513      0.3802     -1.1654  C       1  LIG       0.0000
     4  C4         0.0506     -0.7463     -0.3382  C       1  LIG       0.0000
     5  C5        -1.4135     -0.1338     -0.1211  C       1  LIG       0.0000
     6  C6        -1.0790     -1.6084      0.0737  C       1  LIG       0.0000
     7  C7         0.3404     -1.7773      0.5087  C       1  LIG       0.0000
     8  O8         0.5770     -2.7300      1.2723  O       1  LIG       0.0000
     9  C9         1.1478     -0.6920     -0.1979  C       1  LIG       0.0000
    10  H10        0.1569      2.4279      1.4322  H       1  LIG       0.0000
    11  H11       -1.1078      1.6798      0.4393  H       1  LIG       0.0000
    12  H12        0.0020      2.8140     -0.2882  H       1  LIG       0.0000
    13  H13        1.7953      0.8787      0.8428  H       1  LIG       0.0000
    14  H14        0.6536      0.9356     -2.0494  H       1  LIG       0.0000
    15  H15        0.9963     -1.3154     -0.2692  H       1  LIG       0.0000
    16  H16       -1.5162      0.5074      0.7446  H       1  LIG       0.0000
    17  H17       -2.1150      0.0525     -0.9384  H       1  LIG       0.0000
    18  H18       -1.9606     -2.2046      0.0057  H       1  LIG       0.0000
    19  H19        1.9676     -1.2860     -0.6345  H       1  LIG       0.0000
@<TRIPOS>BOND
    1     5    16  1
    2     4    15  1
    3     4     5  1
    4     5    17  1
    5     5     6  1
    6     4     6  1
    7     3     4  1
    8     6    18  1
    9     6     7  1
   10     3    14  1
   11     2     3  1
   12     3     9  1
   13     1    11  1
   14     7     9  1
   15     7     8  2
   16     1     2  1
   17     2     9  1
   18     2    13  1
   19     1    10  1
   20     1    12  1
   21     9    19  1
