@<TRIPOS>MOLECULE
generated_molecule
19 21 0 0 0
SMALL
NO_CHARGES

@<TRIPOS>ATOM
     1  O1         1.1321      0.3477      1.5112  O       1  LIG       0.0000
     2  C2         0.3807     -0.0716      0.4974  C       1  LIG       0.0000
     3  C3        -0.2440     -1.4736      0.5395  C       1  LIG       0.0000
     4  C4        -0.0870     -1.3825     -0.9861  C       1  LIG       0.0000
     5  C5         0.1578      0.1272     -1.0104  C       1  LIG       0.0000
     6  C6         1.0078      1.3331     -1.1855  C       1  LIG       0.0000
     7  C7        -0.2415      1.6221     -0.3143  C       1  LIG       0.0000
     8  C8        -0.8305      0.7193      0.7207  C       1  LIG       0.0000
     9  C9        -1.1718     -0.6106      1.4490  C       1  LIG       0.0000
    10  H10        0.9826      0.7362      2.4393  H       1  LIG       0.0000
    11  H11       -0.1606     -2.5010      0.9440  H       1  LIG       0.0000
    12  H12       -0.6487     -2.2797     -0.9150  H       1  LIG       0.0000
    13  H13        0.4095     -1.2767     -1.9606  H       1  LIG       0.0000
    14  H14       -0.1977      0.6220     -1.9234  H       1  LIG       0.0000
    15  H15        1.1923      1.6646     -2.2549  H       1  LIG       0.0000
    16  H16        2.0650      1.4540     -0.8296  H       1  LIG       0.0000
    17  H17       -0.7032      2.5391     -0.5497  H       1  LIG       0.0000
    18  H18       -1.8696     -1.4606      1.4117  H       1  LIG       0.0000
    19  H19       -1.1731     -0.1090      2.4167  H       1  LIG       0.0000
@<TRIPOS>BOND
    1     5    14  1
    2     4    13  1
    3     4     5  1
    4     5     6  1
    5     2     5  1
    6     6    16  1
    7     6    15  1
    8     4    12  1
    9     3     4  1
   10     6     7  1
   11     1     2  1
   12     1    10  1
   13     2     3  1
   14     2     8  1
   15     3    11  1
   16     3     9  1
   17     7     8  1
   18     7    17  1
   19     8     9  1
   20     9    19  1
   21     9    18  1
