@<TRIPOS>MOLECULE
generated_molecule
19 20 0 0 0
SMALL
NO_CHARGES

@<TRIPOS>ATOM
     1  C1        -0.1142      1.3375      1.7492  C       1  LIG       0.0000
     2  C2         0.2374      0.4090      0.5199  C       1  LIG       0.0000
     3  C3         1.2194     -0.0557     -0.6332  C       1  LIG       0.0000
     4  C4         0.6386     -1.4247     -0.8948  C       1  LIG       0.0000
     5  C5        -0.7809     -0.8499     -1.0190  C       1  LIG       0.0000
     6  N6        -1.4053      0.2182     -1.8652  N       1  LIG       0.0000
     7  C7        -0.4269      0.5739     -0.8806  C       1  LIG       0.0000
     8  C8         0.1525     -0.3006      1.7782  C       1  LIG       0.0000
     9  N9         0.0570     -0.8341      2.8786  N       1  LIG       0.0000
    10  H10       -0.3648      0.7308      2.6256  H       1  LIG       0.0000
    11  H11       -0.9843      1.9965      1.5785  H       1  LIG       0.0000
    12  H12        0.7195      1.9836      2.0691  H       1  LIG       0.0000
    13  H13        2.2445     -0.2043     -0.3312  H       1  LIG       0.0000
    14  H14        1.1594      0.5722     -1.5168  H       1  LIG       0.0000
    15  H15        0.4800     -2.2208     -1.6609  H       1  LIG       0.0000
    16  H16        1.3534     -1.9220     -0.1904  H       1  LIG       0.0000
    17  H17       -1.5531     -1.5527     -0.6959  H       1  LIG       0.0000
    18  H18       -2.3607      0.0643     -2.0477  H       1  LIG       0.0000
    19  H19       -0.2713      1.4789     -1.4634  H       1  LIG       0.0000
@<TRIPOS>BOND
    1     3    13  1
    2     3    14  1
    3     4    16  1
    4     3     4  1
    5     2     3  1
    6     4    15  1
    7     1    11  1
    8     4     5  1
    9     8     9  3
   10     2     8  1
   11     1     2  1
   12     2     7  1
   13     1    10  1
   14     1    12  1
   15     5     6  1
   16     5     7  1
   17     5    17  1
   18     6     7  1
   19     6    18  1
   20     7    19  1
