@<TRIPOS>MOLECULE
generated_molecule
11 10 0 0 0
SMALL
NO_CHARGES

@<TRIPOS>ATOM
     1  C1        -0.1861     -0.2875      1.3763  C       1  LIG       0.0000
     2  C2        -0.2487     -0.7625     -0.0716  C       1  LIG       0.0000
     3  O3        -0.3952     -1.9394     -0.2789  O       1  LIG       0.0000
     4  C4        -0.1322      0.2853     -1.2101  C       1  LIG       0.0000
     5  O5         0.7843      1.3006     -1.0403  O       1  LIG       0.0000
     6  H6         0.7131     -0.6872      1.8498  H       1  LIG       0.0000
     7  H7        -0.1700      0.7945      1.4110  H       1  LIG       0.0000
     8  H8        -1.0594     -0.6559      1.9321  H       1  LIG       0.0000
     9  H9        -1.1072      0.6905     -1.2779  H       1  LIG       0.0000
    10  H10        0.2472     -0.1566     -2.1313  H       1  LIG       0.0000
    11  H11        1.5542      1.4183     -0.5592  H       1  LIG       0.0000
@<TRIPOS>BOND
    1     1     2  1
    2     1     6  1
    3     1     7  1
    4     1     8  1
    5     2     3  2
    6     2     4  1
    7     4     5  1
    8     4     9  1
    9     4    10  1
   10     5    11  1
