@<TRIPOS>MOLECULE
generated_molecule
14 15 0 0 0
SMALL
NO_CHARGES

@<TRIPOS>ATOM
     1  N1        -1.5302      0.2504     -1.8070  N       1  LIG       0.0000
     2  C2        -0.6916     -0.1505     -0.9374  C       1  LIG       0.0000
     3  N3        -1.3515     -0.8823      0.0226  N       1  LIG       0.0000
     4  C4        -0.5744      0.3488      0.3247  C       1  LIG       0.0000
     5  C5        -0.5055      0.4764      1.8036  C       1  LIG       0.0000
     6  N6        -0.4549      0.6030      2.9039  N       1  LIG       0.0000
     7  C7         0.6780     -0.0310     -0.4406  C       1  LIG       0.0000
     8  C8         2.1645      0.0698     -0.0063  C       1  LIG       0.0000
     9  O9         1.7864     -0.2785     -1.2910  O       1  LIG       0.0000
    10  H10       -2.3740     -0.1693     -1.6906  H       1  LIG       0.0000
    11  H11       -1.2633     -1.6934      0.6187  H       1  LIG       0.0000
    12  H12       -1.0723      1.1086     -0.2456  H       1  LIG       0.0000
    13  H13        2.7350      1.0094      0.0111  H       1  LIG       0.0000
    14  H14        2.4537     -0.6613      0.7339  H       1  LIG       0.0000
@<TRIPOS>BOND
    1     1    10  1
    2     1     2  1
    3     7     9  1
    4     8     9  1
    5     2     7  1
    6     2     3  1
    7     4    12  1
    8     7     8  1
    9     4     7  1
   10     3    11  1
   11     8    14  1
   12     3     4  1
   13     8    13  1
   14     4     5  1
   15     5     6  3
