@<TRIPOS>MOLECULE
generated_molecule
19 19 0 0 0
SMALL
NO_CHARGES

@<TRIPOS>ATOM
     1  C1        -0.3928     -2.0583      0.1564  C       1  LIG       0.0000
     2  C2        -0.3238     -0.5713     -0.1437  C       1  LIG       0.0000
     3  C3        -1.5559      0.3876      0.0750  C       1  LIG       0.0000
     4  C4        -0.9657      1.6866      0.6045  C       1  LIG       0.0000
     5  O5        -0.6508      1.8367      1.7837  O       1  LIG       0.0000
     6  O6         0.6239     -1.0820     -1.0711  O       1  LIG       0.0000
     7  C7         1.7219     -0.3086     -0.5503  C       1  LIG       0.0000
     8  C8         0.6177      0.5935      0.1338  C       1  LIG       0.0000
     9  O9         0.7122      1.8402     -0.4982  O       1  LIG       0.0000
    10  H10        0.6037     -2.5023      0.3066  H       1  LIG       0.0000
    11  H11       -0.8452     -2.5728     -0.6963  H       1  LIG       0.0000
    12  H12       -0.9611     -2.2270      1.0566  H       1  LIG       0.0000
    13  H13       -2.0756      0.3615     -0.8652  H       1  LIG       0.0000
    14  H14       -2.3487      0.1552      0.8283  H       1  LIG       0.0000
    15  H15       -0.8263      2.4540     -0.1391  H       1  LIG       0.0000
    16  H16        2.3457      0.2462     -1.2369  H       1  LIG       0.0000
    17  H17        2.3335     -0.9939      0.0678  H       1  LIG       0.0000
    18  H18        0.4875      0.7406      1.1717  H       1  LIG       0.0000
    19  H19        1.4998      2.0140     -0.9834  H       1  LIG       0.0000
@<TRIPOS>BOND
    1     4    15  1
    2     4     5  2
    3     3     4  1
    4     2     6  1
    5     6     7  1
    6     1    11  1
    7     3    13  1
    8     2     3  1
    9     3    14  1
   10     7    16  1
   11     1     2  1
   12     2     8  1
   13     1    10  1
   14     1    12  1
   15     7    17  1
   16     7     8  1
   17     8    18  1
   18     8     9  1
   19     9    19  1
