
     RDKit          3D

 20 20  0  0  0  0  0  0  0  0999 V2000
    2.4733    1.7295    2.1750 N   0  0  0  0  0  0  0  0  0  0  0  0
    1.3704    1.6186    1.8137 C   0  0  0  0  0  0  0  0  0  0  0  0
    0.0033    1.5907    1.3194 C   0  0  0  0  0  0  0  0  0  0  0  0
   -0.6335    0.2300    1.2252 C   0  0  0  0  0  0  0  0  0  0  0  0
    0.2487   -0.9061    0.7304 C   0  0  0  0  0  0  0  0  0  0  0  0
    0.3921   -1.0053   -0.7719 C   0  0  0  0  0  0  0  0  0  0  0  0
    0.3125    0.2339   -1.7430 C   0  0  0  0  0  0  0  0  0  0  0  0
   -1.1340   -0.0046   -1.8755 O   0  0  0  0  0  0  0  0  0  0  0  0
   -0.9719   -1.3976   -1.6006 C   0  0  0  0  0  0  0  0  0  0  0  0
   -0.5029    2.1607    2.0510 H   0  0  0  0  0  0  0  0  0  0  0  0
   -0.0605    2.1608    0.3862 H   0  0  0  0  0  0  0  0  0  0  0  0
   -1.0303   -0.0215    2.1917 H   0  0  0  0  0  0  0  0  0  0  0  0
   -1.5416    0.3226    0.5111 H   0  0  0  0  0  0  0  0  0  0  0  0
    1.2432   -0.9121    1.1558 H   0  0  0  0  0  0  0  0  0  0  0  0
   -0.2138   -1.8960    1.0338 H   0  0  0  0  0  0  0  0  0  0  0  0
    1.3395   -1.4715   -1.0445 H   0  0  0  0  0  0  0  0  0  0  0  0
    0.7728    0.0340   -2.7547 H   0  0  0  0  0  0  0  0  0  0  0  0
    0.6376    1.2322   -1.4229 H   0  0  0  0  0  0  0  0  0  0  0  0
   -0.8362   -2.0245   -2.4585 H   0  0  0  0  0  0  0  0  0  0  0  0
   -1.8686   -1.6738   -0.9215 H   0  0  0  0  0  0  0  0  0  0  0  0
  7 18  1  0
  7 17  1  0
  7  8  1  0
  6  7  1  0
  8  9  1  0
  4 13  1  0
  3 10  1  0
  5 14  1  0
  1  2  3  0
  2  3  1  0
  9 19  1  0
  3  4  1  0
  4  5  1  0
  4 12  1  0
  3 11  1  0
  6  9  1  0
  9 20  1  0
  5  6  1  0
  6 16  1  0
  5 15  1  0
M  END
$$$$

     RDKit          3D

 19 20  0  0  0  0  0  0  0  0999 V2000
    1.4883    1.8586    0.1794 C   0  0  0  0  0  0  0  0  0  0  0  0
    1.4572    0.3657    0.4819 C   0  0  0  0  0  0  0  0  0  0  0  0
    0.6864   -0.4535   -0.5620 C   0  0  0  0  0  0  0  0  0  0  0  0
   -0.8047   -0.4824   -0.3937 C   0  0  0  0  0  0  0  0  0  0  0  0
   -1.5254   -1.7924   -0.6380 C   0  0  0  0  0  0  0  0  0  0  0  0
   -1.4676   -1.1944    0.7411 C   0  0  0  0  0  0  0  0  0  0  0  0
   -2.2305    0.0134    0.9955 O   0  0  0  0  0  0  0  0  0  0  0  0
   -1.6283    0.6498   -0.0317 C   0  0  0  0  0  0  0  0  0  0  0  0
   -1.7546    1.7494   -0.5202 O   0  0  0  0  0  0  0  0  0  0  0  0
    0.5619    2.3531    0.4905 H   0  0  0  0  0  0  0  0  0  0  0  0
    1.6427    2.0525   -0.8902 H   0  0  0  0  0  0  0  0  0  0  0  0
    2.3088    2.3401    0.7295 H   0  0  0  0  0  0  0  0  0  0  0  0
    2.4979    0.0148    0.4773 H   0  0  0  0  0  0  0  0  0  0  0  0
    1.0685    0.2096    1.4950 H   0  0  0  0  0  0  0  0  0  0  0  0
    1.0690   -1.4856   -0.5234 H   0  0  0  0  0  0  0  0  0  0  0  0
    0.9262   -0.0833   -1.5716 H   0  0  0  0  0  0  0  0  0  0  0  0
   -2.4738   -1.7659   -1.1690 H   0  0  0  0  0  0  0  0  0  0  0  0
   -0.9469   -2.6897   -0.8208 H   0  0  0  0  0  0  0  0  0  0  0  0
   -0.8751   -1.6599    1.5303 H   0  0  0  0  0  0  0  0  0  0  0  0
  8  9  2  0
  2 14  1  0
  1 11  1  0
  1 10  1  0
  1  2  1  0
  1 12  1  0
  2 13  1  0
  2  3  1  0
  7  8  1  0
  4  8  1  0
  3 15  1  0
  6  7  1  0
  3  4  1  0
  3 16  1  0
  4  5  1  0
  4  6  1  0
  5 18  1  0
  5  6  1  0
  5 17  1  0
  6 19  1  0
M  END
$$$$

     RDKit          3D

 16 17  0  0  0  0  0  0  0  0999 V2000
    1.3355   -1.2488    0.2798 O   0  0  0  0  0  0  0  0  0  0  0  0
   -0.0526   -1.2299   -0.0754 C   0  0  0  0  0  0  0  0  0  0  0  0
   -0.2215   -1.1339   -1.5881 C   0  0  0  0  0  0  0  0  0  0  0  0
   -0.3413    0.2943   -1.9202 N   0  0  0  0  0  0  0  0  0  0  0  0
   -0.6448    1.0131   -0.6864 C   0  0  0  0  0  0  0  0  0  0  0  0
    0.4031    1.8883   -0.2971 O   0  0  0  0  0  0  0  0  0  0  0  0
    0.4575    1.7961    1.1195 C   0  0  0  0  0  0  0  0  0  0  0  0
   -0.1087    0.5629    1.5780 O   0  0  0  0  0  0  0  0  0  0  0  0
   -0.7636    0.0090    0.4392 C   0  0  0  0  0  0  0  0  0  0  0  0
    1.3879   -0.8839    1.1839 H   0  0  0  0  0  0  0  0  0  0  0  0
   -0.5032   -2.1424    0.3276 H   0  0  0  0  0  0  0  0  0  0  0  0
    0.6205   -1.5759   -2.1286 H   0  0  0  0  0  0  0  0  0  0  0  0
   -1.1417   -1.6378   -1.9045 H   0  0  0  0  0  0  0  0  0  0  0  0
   -0.1083    2.6231    1.5637 H   0  0  0  0  0  0  0  0  0  0  0  0
    1.4974    1.8674    1.4483 H   0  0  0  0  0  0  0  0  0  0  0  0
   -1.8162   -0.2016    0.6603 H   0  0  0  0  0  0  0  0  0  0  0  0
  2 11  1  0
  9 16  1  0
  8  9  1  0
  7  8  1  0
  2  9  1  0
  5  9  1  0
  7 14  1  0
  1  2  1  0
  2  3  1  0
  1 10  1  0
  7 15  1  0
  6  7  1  0
  3 12  1  0
  3 13  1  0
  3  4  1  0
  5  6  1  0
  4  5  1  0
M  END
$$$$

     RDKit          3D

 17 17  0  0  0  0  0  0  0  0999 V2000
   -0.2440   -1.5503    1.5006 O   0  0  0  0  0  0  0  0  0  0  0  0
   -0.0743   -0.5508    0.8038 C   0  0  0  0  0  0  0  0  0  0  0  0
    0.3612    0.6063    1.3968 N   0  0  0  0  0  0  0  0  0  0  0  0
    0.3178    1.9685    0.8811 C   0  0  0  0  0  0  0  0  0  0  0  0
    1.6081    2.6617    1.0520 C   0  0  0  0  0  0  0  0  0  0  0  0
    2.6139    3.2285    1.1965 N   0  0  0  0  0  0  0  0  0  0  0  0
   -0.3101   -0.5981   -0.6674 C   0  0  0  0  0  0  0  0  0  0  0  0
    0.0938   -1.8384   -1.4424 C   0  0  0  0  0  0  0  0  0  0  0  0
   -1.3637   -1.5271   -1.2371 C   0  0  0  0  0  0  0  0  0  0  0  0
    0.4377    0.5068    2.3990 H   0  0  0  0  0  0  0  0  0  0  0  0
    0.0023    1.9999   -0.1632 H   0  0  0  0  0  0  0  0  0  0  0  0
   -0.4584    2.4850    1.4637 H   0  0  0  0  0  0  0  0  0  0  0  0
   -0.1548    0.3220   -1.2130 H   0  0  0  0  0  0  0  0  0  0  0  0
    0.5131   -2.6832   -0.8969 H   0  0  0  0  0  0  0  0  0  0  0  0
    0.5129   -1.6982   -2.4309 H   0  0  0  0  0  0  0  0  0  0  0  0
   -1.9330   -1.1732   -2.0893 H   0  0  0  0  0  0  0  0  0  0  0  0
   -1.9223   -2.1594   -0.5534 H   0  0  0  0  0  0  0  0  0  0  0  0
  8 15  1  0
  8 14  1  0
  8  9  1  0
  7  8  1  0
  1  2  2  0
  5  6  3  0
  9 16  1  0
  7  9  1  0
  9 17  1  0
  2  7  1  0
  2  3  1  0
  4 12  1  0
  7 13  1  0
  4  5  1  0
  3  4  1  0
  4 11  1  0
  3 10  1  0
M  END
$$$$

     RDKit          3D

 22 24  0  0  0  0  0  0  0  0999 V2000
   -1.6339   -1.4164    0.6483 C   0  0  0  0  0  0  0  0  0  0  0  0
   -1.0197   -0.1343    0.7066 C   0  0  0  0  0  0  0  0  0  0  0  0
   -0.1712   -1.6878    0.7557 N   0  0  0  0  0  0  0  0  0  0  0  0
    1.0724   -1.1901    1.1868 C   0  0  0  0  0  0  0  0  0  0  0  0
    1.7542   -0.5119   -0.0424 C   0  0  0  0  0  0  0  0  0  0  0  0
    0.7049   -0.1584   -1.0403 C   0  0  0  0  0  0  0  0  0  0  0  0
   -0.4456    0.5827   -0.3597 C   0  0  0  0  0  0  0  0  0  0  0  0
   -1.2177    1.6191   -1.1496 C   0  0  0  0  0  0  0  0  0  0  0  0
   -0.0775    2.0467   -0.2471 C   0  0  0  0  0  0  0  0  0  0  0  0
   -2.1590   -1.9319    1.4252 H   0  0  0  0  0  0  0  0  0  0  0  0
   -2.0231   -1.8177   -0.3064 H   0  0  0  0  0  0  0  0  0  0  0  0
   -1.6204    0.3330    1.4676 H   0  0  0  0  0  0  0  0  0  0  0  0
    1.7156   -2.1031    1.4377 H   0  0  0  0  0  0  0  0  0  0  0  0
    1.1802   -0.6525    2.1119 H   0  0  0  0  0  0  0  0  0  0  0  0
    2.6599   -1.2314   -0.4588 H   0  0  0  0  0  0  0  0  0  0  0  0
    2.3404    0.3364    0.1043 H   0  0  0  0  0  0  0  0  0  0  0  0
    0.2726   -1.0954   -1.4837 H   0  0  0  0  0  0  0  0  0  0  0  0
    1.1259    0.3449   -1.9268 H   0  0  0  0  0  0  0  0  0  0  0  0
   -0.9529    1.7901   -2.2590 H   0  0  0  0  0  0  0  0  0  0  0  0
   -2.1834    1.7919   -0.6320 H   0  0  0  0  0  0  0  0  0  0  0  0
   -0.2252    2.5170    0.7677 H   0  0  0  0  0  0  0  0  0  0  0  0
    0.9034    2.5690   -0.7060 H   0  0  0  0  0  0  0  0  0  0  0  0
  6 17  1  0
  5 16  1  0
  6 18  1  0
  5  6  1  0
  6  7  1  0
  5 15  1  0
  4  5  1  0
  8 19  1  0
  9 22  1  0
  4 14  1  0
  7  8  1  0
  8  9  1  0
  8 20  1  0
  7  9  1  0
  2  7  1  0
  4 13  1  0
  3  4  1  0
  9 21  1  0
  1 11  1  0
  1  2  1  0
  2  3  1  0
  2 12  1  0
  1  3  1  0
  1 10  1  0
M  END
$$$$

     RDKit          3D

 17 16  0  0  0  0  0  0  0  0999 V2000
    1.2063    0.6959    2.8507 C   0  0  0  0  0  0  0  0  0  0  0  0
    0.3181    0.9119    2.0716 C   0  0  0  0  0  0  0  0  0  0  0  0
   -0.7745    1.1914    1.1299 C   0  0  0  0  0  0  0  0  0  0  0  0
   -0.4020    0.9098   -0.3287 C   0  0  0  0  0  0  0  0  0  0  0  0
   -0.4845   -0.5791   -0.7220 C   0  0  0  0  0  0  0  0  0  0  0  0
    0.6457   -1.3594   -0.1804 C   0  0  0  0  0  0  0  0  0  0  0  0
    1.5614   -2.0060    0.2516 C   0  0  0  0  0  0  0  0  0  0  0  0
   -0.5492   -0.6956   -2.1972 C   0  0  0  0  0  0  0  0  0  0  0  0
   -0.6028   -0.7906   -3.3940 C   0  0  0  0  0  0  0  0  0  0  0  0
    1.9961    0.5012    3.5400 H   0  0  0  0  0  0  0  0  0  0  0  0
   -1.6714    0.6286    1.4113 H   0  0  0  0  0  0  0  0  0  0  0  0
   -1.0346    2.2533    1.2185 H   0  0  0  0  0  0  0  0  0  0  0  0
   -1.1148    1.4715   -0.9495 H   0  0  0  0  0  0  0  0  0  0  0  0
    0.5917    1.3188   -0.5587 H   0  0  0  0  0  0  0  0  0  0  0  0
   -1.4170   -0.9964   -0.3202 H   0  0  0  0  0  0  0  0  0  0  0  0
    2.3753   -2.5785    0.6327 H   0  0  0  0  0  0  0  0  0  0  0  0
   -0.6438   -0.8767   -4.4556 H   0  0  0  0  0  0  0  0  0  0  0  0
  4 14  1  0
  5 15  1  0
  3 11  1  0
  9 17  1  0
  8  9  3  0
  5  8  1  0
  1 10  1  0
  1  2  3  0
  2  3  1  0
  3  4  1  0
  4  5  1  0
  4 13  1  0
  3 12  1  0
  5  6  1  0
  6  7  3  0
  7 16  1  0
M  END
$$$$

     RDKit          3D

 17 18  0  0  0  0  0  0  0  0999 V2000
    1.0783   -1.9042    0.5175 C   0  0  0  0  0  0  0  0  0  0  0  0
    0.1609   -1.0977   -0.3311 N   0  0  0  0  0  0  0  0  0  0  0  0
   -1.1823   -0.9367    0.4347 C   0  0  0  0  0  0  0  0  0  0  0  0
   -1.3088    0.3239   -0.4026 C   0  0  0  0  0  0  0  0  0  0  0  0
   -1.2266    1.7616   -0.1025 O   0  0  0  0  0  0  0  0  0  0  0  0
    0.1339    1.6227   -0.8304 C   0  0  0  0  0  0  0  0  0  0  0  0
    0.9135    2.7907   -0.5296 C   0  0  0  0  0  0  0  0  0  0  0  0
    1.3770    3.8572   -0.3022 N   0  0  0  0  0  0  0  0  0  0  0  0
    0.3253    0.3810    0.0064 C   0  0  0  0  0  0  0  0  0  0  0  0
    2.0609   -1.8801    0.0728 H   0  0  0  0  0  0  0  0  0  0  0  0
    0.6917   -2.9448    0.5094 H   0  0  0  0  0  0  0  0  0  0  0  0
    1.1086   -1.6121    1.5799 H   0  0  0  0  0  0  0  0  0  0  0  0
   -1.9102   -1.7006    0.1147 H   0  0  0  0  0  0  0  0  0  0  0  0
   -1.1257   -0.9361    1.5363 H   0  0  0  0  0  0  0  0  0  0  0  0
   -1.6145    0.1632   -1.4490 H   0  0  0  0  0  0  0  0  0  0  0  0
   -0.0486    1.5674   -1.8846 H   0  0  0  0  0  0  0  0  0  0  0  0
    0.5667    0.5450    1.0605 H   0  0  0  0  0  0  0  0  0  0  0  0
  7  8  3  0
  1 11  1  0
  3 14  1  0
  6  7  1  0
  1  2  1  0
  1 10  1  0
  1 12  1  0
  2  3  1  0
  2  9  1  0
  3 13  1  0
  3  4  1  0
  5  6  1  0
  4  5  1  0
  6  9  1  0
  6 16  1  0
  4  9  1  0
  4 15  1  0
  9 17  1  0
M  END
$$$$

     RDKit          3D

 21 22  0  0  0  0  0  0  0  0999 V2000
    1.3299    1.9529   -0.0836 C   0  0  0  0  0  0  0  0  0  0  0  0
    0.0156    1.2657   -0.3224 C   0  0  0  0  0  0  0  0  0  0  0  0
   -1.2249    1.7021    0.5137 C   0  0  0  0  0  0  0  0  0  0  0  0
   -1.6278    0.3079    0.6642 O   0  0  0  0  0  0  0  0  0  0  0  0
   -0.2891   -0.0693    0.2507 C   0  0  0  0  0  0  0  0  0  0  0  0
    0.4288   -1.0523    1.0896 C   0  0  0  0  0  0  0  0  0  0  0  0
    0.0758   -1.3770   -0.3496 C   0  0  0  0  0  0  0  0  0  0  0  0
   -1.0189   -2.3469   -0.6822 C   0  0  0  0  0  0  0  0  0  0  0  0
    1.2061   -1.4173   -1.2607 O   0  0  0  0  0  0  0  0  0  0  0  0
    1.6462    1.7778    0.9622 H   0  0  0  0  0  0  0  0  0  0  0  0
    2.0581    1.6027   -0.8036 H   0  0  0  0  0  0  0  0  0  0  0  0
    1.2214    3.0221   -0.2131 H   0  0  0  0  0  0  0  0  0  0  0  0
   -0.2369    1.2795   -1.4096 H   0  0  0  0  0  0  0  0  0  0  0  0
   -0.9946    2.1590    1.4850 H   0  0  0  0  0  0  0  0  0  0  0  0
   -1.9658    2.3110    0.0180 H   0  0  0  0  0  0  0  0  0  0  0  0
   -0.1083   -1.5764    1.8874 H   0  0  0  0  0  0  0  0  0  0  0  0
    1.4272   -0.7616    1.4174 H   0  0  0  0  0  0  0  0  0  0  0  0
   -1.5321   -1.9772   -1.5899 H   0  0  0  0  0  0  0  0  0  0  0  0
   -0.6096   -3.3472   -0.8137 H   0  0  0  0  0  0  0  0  0  0  0  0
   -1.7979   -2.4347    0.0943 H   0  0  0  0  0  0  0  0  0  0  0  0
    1.9967   -1.0205   -0.8541 H   0  0  0  0  0  0  0  0  0  0  0  0
  3 14  1  0
  3 15  1  0
  1 11  1  0
  2  3  1  0
  3  4  1  0
  2 13  1  0
  1  2  1  0
  2  5  1  0
  1 10  1  0
  1 12  1  0
  4  5  1  0
  5  7  1  0
  5  6  1  0
  8 19  1  0
  8 18  1  0
  7  8  1  0
  7  9  1  0
  6  7  1  0
  8 20  1  0
  9 21  1  0
  6 17  1  0
  6 16  1  0
M  END
$$$$

     RDKit          3D

 19 19  0  0  0  0  0  0  0  0999 V2000
   -0.3696   -1.5312    0.9642 C   0  0  0  0  0  0  0  0  0  0  0  0
   -0.1901   -0.4363   -0.0861 C   0  0  0  0  0  0  0  0  0  0  0  0
   -1.4683    0.3359   -0.3680 C   0  0  0  0  0  0  0  0  0  0  0  0
   -1.6217    1.5435    0.5070 C   0  0  0  0  0  0  0  0  0  0  0  0
   -1.6772    1.4789    1.7359 O   0  0  0  0  0  0  0  0  0  0  0  0
    0.2727   -1.0636   -1.3297 O   0  0  0  0  0  0  0  0  0  0  0  0
    1.6280   -0.6040   -1.0764 C   0  0  0  0  0  0  0  0  0  0  0  0
    1.1413    0.3588    0.0230 C   0  0  0  0  0  0  0  0  0  0  0  0
    1.0935    1.7633   -0.3136 O   0  0  0  0  0  0  0  0  0  0  0  0
    0.5748   -2.0443    1.1743 H   0  0  0  0  0  0  0  0  0  0  0  0
   -1.0828   -2.2891    0.5966 H   0  0  0  0  0  0  0  0  0  0  0  0
   -0.7560   -1.1374    1.9164 H   0  0  0  0  0  0  0  0  0  0  0  0
   -1.5316    0.6826   -1.4188 H   0  0  0  0  0  0  0  0  0  0  0  0
   -2.3666   -0.2811   -0.1930 H   0  0  0  0  0  0  0  0  0  0  0  0
   -1.6706    2.5143   -0.0196 H   0  0  0  0  0  0  0  0  0  0  0  0
    2.0615   -0.1120   -1.9568 H   0  0  0  0  0  0  0  0  0  0  0  0
    2.2700   -1.4312   -0.7498 H   0  0  0  0  0  0  0  0  0  0  0  0
    1.6592    0.2244    0.9802 H   0  0  0  0  0  0  0  0  0  0  0  0
    2.0335    2.0286   -0.3857 H   0  0  0  0  0  0  0  0  0  0  0  0
  4 15  1  0
  4  5  2  0
  3  4  1  0
  2  6  1  0
  6  7  1  0
  1 11  1  0
  3 13  1  0
  2  3  1  0
  3 14  1  0
  7 16  1  0
  1  2  1  0
  2  8  1  0
  1 10  1  0
  1 12  1  0
  7 17  1  0
  7  8  1  0
  8 18  1  0
  8  9  1  0
  9 19  1  0
M  END
$$$$

     RDKit          3D

 18 18  0  0  0  0  0  0  0  0999 V2000
    0.4479    1.2201   -1.5614 C   0  0  0  0  0  0  0  0  0  0  0  0
    0.3246    0.5477   -0.1946 C   0  0  0  0  0  0  0  0  0  0  0  0
    1.6411   -0.1146    0.2412 C   0  0  0  0  0  0  0  0  0  0  0  0
   -0.0789    1.5379    0.7929 O   0  0  0  0  0  0  0  0  0  0  0  0
   -1.0903    0.6387    1.3113 C   0  0  0  0  0  0  0  0  0  0  0  0
   -1.0336   -0.2069    0.0361 C   0  0  0  0  0  0  0  0  0  0  0  0
   -1.0054   -1.6458    0.2041 C   0  0  0  0  0  0  0  0  0  0  0  0
   -1.0096   -2.8385    0.3502 C   0  0  0  0  0  0  0  0  0  0  0  0
   -0.4830    1.6966   -1.8787 H   0  0  0  0  0  0  0  0  0  0  0  0
    0.7128    0.4689   -2.3088 H   0  0  0  0  0  0  0  0  0  0  0  0
    1.2260    2.0039   -1.5644 H   0  0  0  0  0  0  0  0  0  0  0  0
    2.2928    0.6144    0.7405 H   0  0  0  0  0  0  0  0  0  0  0  0
    2.2115   -0.4903   -0.6319 H   0  0  0  0  0  0  0  0  0  0  0  0
    1.4584   -0.9392    0.9433 H   0  0  0  0  0  0  0  0  0  0  0  0
   -0.7418    0.1806    2.2402 H   0  0  0  0  0  0  0  0  0  0  0  0
   -2.0452    1.1497    1.5013 H   0  0  0  0  0  0  0  0  0  0  0  0
   -1.8108    0.0894   -0.6958 H   0  0  0  0  0  0  0  0  0  0  0  0
   -1.0164   -3.9126    0.4746 H   0  0  0  0  0  0  0  0  0  0  0  0
  3 12  1  0
  1 10  1  0
  2  4  1  0
  4  5  1  0
  3 13  1  0
  2  3  1  0
  3 14  1  0
  1  2  1  0
  1  9  1  0
  1 11  1  0
  2  6  1  0
  5 15  1  0
  5 16  1  0
  5  6  1  0
  6 17  1  0
  6  7  1  0
  7  8  3  0
  8 18  1  0
M  END
$$$$

     RDKit          3D

 16 17  0  0  0  0  0  0  0  0999 V2000
    1.6440   -1.8247    1.7836 O   0  0  0  0  0  0  0  0  0  0  0  0
    1.0477   -1.0288    1.0678 C   0  0  0  0  0  0  0  0  0  0  0  0
   -0.3422   -1.3058    0.5268 C   0  0  0  0  0  0  0  0  0  0  0  0
   -0.8881   -0.1788   -0.3479 C   0  0  0  0  0  0  0  0  0  0  0  0
   -0.6773    1.2052    0.3305 C   0  0  0  0  0  0  0  0  0  0  0  0
    0.7924    1.0151   -0.1483 C   0  0  0  0  0  0  0  0  0  0  0  0
    0.1696    0.2980   -1.3796 C   0  0  0  0  0  0  0  0  0  0  0  0
    1.5965    0.1670    0.7029 O   0  0  0  0  0  0  0  0  0  0  0  0
   -0.2966   -2.2309   -0.0586 H   0  0  0  0  0  0  0  0  0  0  0  0
   -1.0102   -1.4660    1.3798 H   0  0  0  0  0  0  0  0  0  0  0  0
   -1.8867   -0.3751   -0.7459 H   0  0  0  0  0  0  0  0  0  0  0  0
   -1.2048    2.0446   -0.1385 H   0  0  0  0  0  0  0  0  0  0  0  0
   -0.8348    1.2484    1.4123 H   0  0  0  0  0  0  0  0  0  0  0  0
    1.3265    1.9425   -0.3784 H   0  0  0  0  0  0  0  0  0  0  0  0
    0.7759   -0.4812   -1.8486 H   0  0  0  0  0  0  0  0  0  0  0  0
   -0.2118    0.9704   -2.1579 H   0  0  0  0  0  0  0  0  0  0  0  0
  5 13  1  0
  5 12  1  0
  5  6  1  0
  4  5  1  0
  6 14  1  0
  4 11  1  0
  6  8  1  0
  6  7  1  0
  3  4  1  0
  4  7  1  0
  3  9  1  0
  7 15  1  0
  2  8  1  0
  2  3  1  0
  3 10  1  0
  7 16  1  0
  1  2  2  0
M  END
$$$$

     RDKit          3D

 20 22  0  0  0  0  0  0  0  0999 V2000
   -1.6458    1.6617    0.0417 C   0  0  0  0  0  0  0  0  0  0  0  0
   -0.6917    0.4956   -0.1334 C   0  0  0  0  0  0  0  0  0  0  0  0
   -1.3557   -0.9247   -0.0956 C   0  0  0  0  0  0  0  0  0  0  0  0
   -0.2577   -1.4395    0.7738 N   0  0  0  0  0  0  0  0  0  0  0  0
    0.9992   -1.7145    0.0395 C   0  0  0  0  0  0  0  0  0  0  0  0
    1.5061   -0.2890    0.4066 C   0  0  0  0  0  0  0  0  0  0  0  0
    1.5308    0.6438   -0.8136 C   0  0  0  0  0  0  0  0  0  0  0  0
    0.1829    0.7171   -1.2535 O   0  0  0  0  0  0  0  0  0  0  0  0
    0.1409   -0.0411    1.0541 C   0  0  0  0  0  0  0  0  0  0  0  0
   -1.0807    2.6020    0.1665 H   0  0  0  0  0  0  0  0  0  0  0  0
   -2.2440    1.8231   -0.8694 H   0  0  0  0  0  0  0  0  0  0  0  0
   -2.3332    1.4866    0.8757 H   0  0  0  0  0  0  0  0  0  0  0  0
   -2.3006   -1.0392    0.3945 H   0  0  0  0  0  0  0  0  0  0  0  0
   -1.4989   -1.4658   -1.0578 H   0  0  0  0  0  0  0  0  0  0  0  0
    0.8903   -1.9235   -1.0088 H   0  0  0  0  0  0  0  0  0  0  0  0
    1.6559   -2.5038    0.5081 H   0  0  0  0  0  0  0  0  0  0  0  0
    2.3693   -0.2684    1.0836 H   0  0  0  0  0  0  0  0  0  0  0  0
    2.1637    0.2291   -1.6019 H   0  0  0  0  0  0  0  0  0  0  0  0
    1.9506    1.6328   -0.5869 H   0  0  0  0  0  0  0  0  0  0  0  0
    0.0188    0.3180    2.0768 H   0  0  0  0  0  0  0  0  0  0  0  0
  3 13  1  0
  3 14  1  0
  3  4  1  0
  2  3  1  0
  4  5  1  0
  4  9  1  0
  5 15  1  0
  1 11  1  0
  5 16  1  0
  5  6  1  0
  9 20  1  0
  2  9  1  0
  6  9  1  0
  1  2  1  0
  2  8  1  0
  1 10  1  0
  1 12  1  0
  6 17  1  0
  6  7  1  0
  7  8  1  0
  7 19  1  0
  7 18  1  0
M  END
$$$$

     RDKit          3D

 23 23  0  0  0  0  0  0  0  0999 V2000
   -0.1797   -1.4916   -1.7172 C   0  0  0  0  0  0  0  0  0  0  0  0
    1.0617   -1.1246   -0.9413 C   0  0  0  0  0  0  0  0  0  0  0  0
    1.0720    0.0272    0.0231 C   0  0  0  0  0  0  0  0  0  0  0  0
    0.3135    0.0755    1.3307 C   0  0  0  0  0  0  0  0  0  0  0  0
   -0.6168   -0.9997    1.8189 C   0  0  0  0  0  0  0  0  0  0  0  0
    0.0564    1.1300    0.2122 C   0  0  0  0  0  0  0  0  0  0  0  0
   -1.2833    1.1170   -0.4390 C   0  0  0  0  0  0  0  0  0  0  0  0
    0.6121    2.5181    0.3366 C   0  0  0  0  0  0  0  0  0  0  0  0
    0.8256    3.0500    1.4131 O   0  0  0  0  0  0  0  0  0  0  0  0
    0.0752   -2.3436   -2.3636 H   0  0  0  0  0  0  0  0  0  0  0  0
   -1.0133   -1.7280   -1.0688 H   0  0  0  0  0  0  0  0  0  0  0  0
   -0.5178   -0.6821   -2.3752 H   0  0  0  0  0  0  0  0  0  0  0  0
    1.4912   -1.9944   -0.4331 H   0  0  0  0  0  0  0  0  0  0  0  0
    1.7924   -0.8585   -1.7130 H   0  0  0  0  0  0  0  0  0  0  0  0
    2.1225    0.3187    0.2012 H   0  0  0  0  0  0  0  0  0  0  0  0
    0.8944    0.4697    2.1676 H   0  0  0  0  0  0  0  0  0  0  0  0
   -1.5885   -1.0483    1.3286 H   0  0  0  0  0  0  0  0  0  0  0  0
   -0.1330   -1.9777    1.7402 H   0  0  0  0  0  0  0  0  0  0  0  0
   -0.7824   -0.8320    2.8992 H   0  0  0  0  0  0  0  0  0  0  0  0
   -1.8557    0.1872   -0.2791 H   0  0  0  0  0  0  0  0  0  0  0  0
   -1.2403    1.2856   -1.5273 H   0  0  0  0  0  0  0  0  0  0  0  0
   -1.9184    1.8838   -0.0029 H   0  0  0  0  0  0  0  0  0  0  0  0
    0.8124    3.0176   -0.6107 H   0  0  0  0  0  0  0  0  0  0  0  0
  5 19  1  0
  5 18  1  0
  5 17  1  0
  4  5  1  0
  1 11  1  0
  1 10  1  0
  1 12  1  0
  1  2  1  0
  4 16  1  0
  3  4  1  0
  4  6  1  0
  2 13  1  0
  2  3  1  0
  2 14  1  0
  7 20  1  0
  3 15  1  0
  3  6  1  0
  6  7  1  0
  6  8  1  0
  7 22  1  0
  7 21  1  0
  8  9  2  0
  8 23  1  0
M  END
$$$$

     RDKit          3D

 13 14  0  0  0  0  0  0  0  0999 V2000
   -0.4150    2.2231   -1.2055 N   0  0  0  0  0  0  0  0  0  0  0  0
   -0.9781    1.1131   -0.3927 C   0  0  0  0  0  0  0  0  0  0  0  0
   -1.4418    0.1101   -1.3149 O   0  0  0  0  0  0  0  0  0  0  0  0
   -1.0073   -0.9167   -0.3688 C   0  0  0  0  0  0  0  0  0  0  0  0
    0.4929   -1.2624   -0.3327 C   0  0  0  0  0  0  0  0  0  0  0  0
    0.0810    0.1574    0.0510 C   0  0  0  0  0  0  0  0  0  0  0  0
    0.6607    0.4463    1.3622 C   0  0  0  0  0  0  0  0  0  0  0  0
    1.1323    0.6730    2.4386 C   0  0  0  0  0  0  0  0  0  0  0  0
   -0.2594    1.8666   -2.1644 H   0  0  0  0  0  0  0  0  0  0  0  0
   -1.3823   -1.9383   -0.6759 H   0  0  0  0  0  0  0  0  0  0  0  0
    0.7706   -1.8873    0.4987 H   0  0  0  0  0  0  0  0  0  0  0  0
    0.9445   -1.4932   -1.3298 H   0  0  0  0  0  0  0  0  0  0  0  0
    1.4018    0.9082    3.4342 H   0  0  0  0  0  0  0  0  0  0  0  0
  8 13  1  0
  7  8  3  0
  6  7  1  0
  4 10  1  0
  4  6  1  0
  2  6  1  0
  5  6  1  0
  3  4  1  0
  4  5  1  0
  1  2  1  0
  1  9  1  0
  2  3  1  0
  5 11  1  0
  5 12  1  0
M  END
$$$$

     RDKit          3D

 18 18  0  0  0  0  0  0  0  0999 V2000
    1.7778   -1.3482    1.2478 C   0  0  0  0  0  0  0  0  0  0  0  0
    1.3697   -0.8579   -0.0301 O   0  0  0  0  0  0  0  0  0  0  0  0
   -0.0641   -0.9581   -0.2333 C   0  0  0  0  0  0  0  0  0  0  0  0
   -0.8803    0.2877    0.0216 C   0  0  0  0  0  0  0  0  0  0  0  0
   -0.2701    1.5312    0.5659 C   0  0  0  0  0  0  0  0  0  0  0  0
   -0.7794    2.6473   -0.1725 O   0  0  0  0  0  0  0  0  0  0  0  0
   -0.5967   -0.1505   -1.3903 C   0  0  0  0  0  0  0  0  0  0  0  0
   -1.6624   -0.7007   -2.1803 C   0  0  0  0  0  0  0  0  0  0  0  0
   -2.5265   -1.1558   -2.8100 N   0  0  0  0  0  0  0  0  0  0  0  0
    2.7509   -0.9009    1.4951 H   0  0  0  0  0  0  0  0  0  0  0  0
    1.9064   -2.4422    1.1898 H   0  0  0  0  0  0  0  0  0  0  0  0
    1.0433   -1.1087    2.0208 H   0  0  0  0  0  0  0  0  0  0  0  0
   -0.5362   -1.9178   -0.0317 H   0  0  0  0  0  0  0  0  0  0  0  0
   -1.8872    0.1661    0.4001 H   0  0  0  0  0  0  0  0  0  0  0  0
    0.8315    1.5261    0.5217 H   0  0  0  0  0  0  0  0  0  0  0  0
   -0.5689    1.6575    1.6187 H   0  0  0  0  0  0  0  0  0  0  0  0
   -0.0291    3.2730   -0.3012 H   0  0  0  0  0  0  0  0  0  0  0  0
    0.1213    0.4518   -1.9320 H   0  0  0  0  0  0  0  0  0  0  0  0
  7 18  1  0
  3 13  1  0
  3  7  1  0
  7  8  1  0
  4  7  1  0
  4 14  1  0
  3  4  1  0
  2  3  1  0
  8  9  3  0
  4  5  1  0
  1 10  1  0
  1 11  1  0
  1  2  1  0
  1 12  1  0
  6 17  1  0
  5  6  1  0
  5 15  1  0
  5 16  1  0
M  END
$$$$

     RDKit          3D

 17 20  0  0  0  0  0  0  0  0999 V2000
    0.3146   -1.7305    0.4261 C   0  0  0  0  0  0  0  0  0  0  0  0
   -1.1069   -1.9394   -0.0518 C   0  0  0  0  0  0  0  0  0  0  0  0
   -1.5495   -0.7556   -0.6262 C   0  0  0  0  0  0  0  0  0  0  0  0
   -0.6693    0.4056   -0.1363 C   0  0  0  0  0  0  0  0  0  0  0  0
    0.8329    0.8270    1.0633 C   0  0  0  0  0  0  0  0  0  0  0  0
   -0.1426    2.2442    0.9130 N   0  0  0  0  0  0  0  0  0  0  0  0
   -0.1753    1.6783   -0.8452 C   0  0  0  0  0  0  0  0  0  0  0  0
    1.2796    0.9801   -0.3336 C   0  0  0  0  0  0  0  0  0  0  0  0
    0.5681   -0.3945   -0.6214 N   0  0  0  0  0  0  0  0  0  0  0  0
    0.2188   -1.4651    1.4965 H   0  0  0  0  0  0  0  0  0  0  0  0
    1.0730   -2.6965    0.3217 H   0  0  0  0  0  0  0  0  0  0  0  0
   -1.3388   -3.0210   -0.5224 H   0  0  0  0  0  0  0  0  0  0  0  0
   -1.9282   -0.9567   -1.5920 H   0  0  0  0  0  0  0  0  0  0  0  0
    1.9418    1.3325    1.3562 H   0  0  0  0  0  0  0  0  0  0  0  0
   -1.0327    1.9289    1.3703 H   0  0  0  0  0  0  0  0  0  0  0  0
   -0.4442    2.7080   -1.2066 H   0  0  0  0  0  0  0  0  0  0  0  0
    2.1586    0.8544   -1.0115 H   0  0  0  0  0  0  0  0  0  0  0  0
  1 11  1  0
  2 12  1  0
  1  9  1  0
  1  2  1  0
  1 10  1  0
  4  9  1  0
  8  9  1  0
  2  3  2  0
  5 14  1  0
  3  4  1  0
  3 13  1  0
  4  5  1  0
  4  7  1  0
  8 17  1  0
  5  8  1  0
  7  8  1  0
  5  6  1  0
  6  7  1  0
  7 16  1  0
  6 15  1  0
M  END
$$$$

     RDKit          3D

 25 26  0  0  0  0  0  0  0  0999 V2000
   -2.7339    0.4212    1.4150 C   0  0  0  0  0  0  0  0  0  0  0  0
   -1.9429   -0.0842    0.2078 C   0  0  0  0  0  0  0  0  0  0  0  0
   -0.7280    0.8110    0.0072 C   0  0  0  0  0  0  0  0  0  0  0  0
    0.5863    0.4207    0.7900 C   0  0  0  0  0  0  0  0  0  0  0  0
    1.2133    1.6397   -0.0384 C   0  0  0  0  0  0  0  0  0  0  0  0
    0.4211    0.8000   -1.1165 C   0  0  0  0  0  0  0  0  0  0  0  0
    1.0239   -0.4949   -0.4304 C   0  0  0  0  0  0  0  0  0  0  0  0
    0.3339   -1.7478   -0.9988 C   0  0  0  0  0  0  0  0  0  0  0  0
    2.5290   -0.8152   -0.2995 C   0  0  0  0  0  0  0  0  0  0  0  0
   -3.1345    1.4215    1.1916 H   0  0  0  0  0  0  0  0  0  0  0  0
   -2.1261    0.5230    2.3224 H   0  0  0  0  0  0  0  0  0  0  0  0
   -3.5736   -0.2669    1.6221 H   0  0  0  0  0  0  0  0  0  0  0  0
   -1.7030   -1.1328    0.4162 H   0  0  0  0  0  0  0  0  0  0  0  0
   -2.5723   -0.0461   -0.6961 H   0  0  0  0  0  0  0  0  0  0  0  0
   -1.0785    1.8637    0.1511 H   0  0  0  0  0  0  0  0  0  0  0  0
    0.6767    0.2174    1.8459 H   0  0  0  0  0  0  0  0  0  0  0  0
    2.3023    1.7091   -0.1647 H   0  0  0  0  0  0  0  0  0  0  0  0
    0.8479    2.6575    0.2233 H   0  0  0  0  0  0  0  0  0  0  0  0
    0.3464    1.0555   -2.1515 H   0  0  0  0  0  0  0  0  0  0  0  0
    1.0882   -2.4248   -1.3915 H   0  0  0  0  0  0  0  0  0  0  0  0
   -0.2393   -2.3000   -0.2435 H   0  0  0  0  0  0  0  0  0  0  0  0
   -0.2940   -1.5125   -1.8763 H   0  0  0  0  0  0  0  0  0  0  0  0
    2.6679   -1.7893    0.1909 H   0  0  0  0  0  0  0  0  0  0  0  0
    3.1037   -0.0979    0.3051 H   0  0  0  0  0  0  0  0  0  0  0  0
    2.9854   -0.8280   -1.2813 H   0  0  0  0  0  0  0  0  0  0  0  0
  9 24  1  0
  9 25  1  0
  4 16  1  0
  5 17  1  0
  9 23  1  0
  7  9  1  0
  4  5  1  0
  4  7  1  0
  3  4  1  0
  5 18  1  0
  5  6  1  0
  8 21  1  0
  7  8  1  0
  6  7  1  0
  1 11  1  0
  8 22  1  0
  8 20  1  0
  3  6  1  0
  6 19  1  0
  2  3  1  0
  3 15  1  0
  2 13  1  0
  1  2  1  0
  1 10  1  0
  1 12  1  0
  2 14  1  0
M  END
$$$$

     RDKit          3D

 19 21  0  0  0  0  0  0  0  0999 V2000
   -0.5756    0.1645   -2.1446 C   0  0  0  0  0  0  0  0  0  0  0  0
    0.0136    0.1142   -0.7378 C   0  0  0  0  0  0  0  0  0  0  0  0
    1.5095    0.2424   -0.7583 C   0  0  0  0  0  0  0  0  0  0  0  0
    1.8666    0.0456    0.5154 C   0  0  0  0  0  0  0  0  0  0  0  0
    0.5781   -0.1904    1.2257 C   0  0  0  0  0  0  0  0  0  0  0  0
    0.6362   -0.6096    2.5966 O   0  0  0  0  0  0  0  0  0  0  0  0
   -0.4959    0.8837    0.6598 C   0  0  0  0  0  0  0  0  0  0  0  0
   -1.5928   -0.2153    0.7536 C   0  0  0  0  0  0  0  0  0  0  0  0
   -0.3962   -1.0533    0.2831 C   0  0  0  0  0  0  0  0  0  0  0  0
   -0.2813   -0.7575   -2.6927 H   0  0  0  0  0  0  0  0  0  0  0  0
   -1.6545    0.1990   -2.1705 H   0  0  0  0  0  0  0  0  0  0  0  0
   -0.1494    0.9802   -2.7465 H   0  0  0  0  0  0  0  0  0  0  0  0
    2.1444    0.5753   -1.5869 H   0  0  0  0  0  0  0  0  0  0  0  0
    2.8622    0.1556    0.9848 H   0  0  0  0  0  0  0  0  0  0  0  0
    0.9071    0.1753    3.1470 H   0  0  0  0  0  0  0  0  0  0  0  0
   -0.5672    1.9605    0.8254 H   0  0  0  0  0  0  0  0  0  0  0  0
   -2.0267   -0.3485    1.7303 H   0  0  0  0  0  0  0  0  0  0  0  0
   -2.3981   -0.1930   -0.0028 H   0  0  0  0  0  0  0  0  0  0  0  0
   -0.3801   -2.1287    0.1183 H   0  0  0  0  0  0  0  0  0  0  0  0
  3 13  1  0
  4 14  1  0
  3  4  2  0
  2  3  1  0
  4  5  1  0
  1 11  1  0
  1 10  1  0
  1  2  1  0
  1 12  1  0
  2  9  1  0
  2  7  1  0
  9 19  1  0
  5  9  1  0
  5  6  1  0
  5  7  1  0
  8  9  1  0
  6 15  1  0
  7 16  1  0
  7  8  1  0
  8 18  1  0
  8 17  1  0
M  END
$$$$

     RDKit          3D

 19 21  0  0  0  0  0  0  0  0999 V2000
    1.4952   -0.2968   -1.7157 C   0  0  0  0  0  0  0  0  0  0  0  0
    0.3200   -0.3865   -0.7317 C   0  0  0  0  0  0  0  0  0  0  0  0
    0.5980   -1.1548    0.5833 C   0  0  0  0  0  0  0  0  0  0  0  0
    0.0488   -0.2398    1.6678 C   0  0  0  0  0  0  0  0  0  0  0  0
   -0.9577    0.6048    0.9657 C   0  0  0  0  0  0  0  0  0  0  0  0
   -1.4965    1.7165    1.6822 O   0  0  0  0  0  0  0  0  0  0  0  0
   -1.6444    0.0007   -0.2758 C   0  0  0  0  0  0  0  0  0  0  0  0
   -0.9307   -0.8590   -1.2731 O   0  0  0  0  0  0  0  0  0  0  0  0
   -0.4198    0.8607   -0.3786 C   0  0  0  0  0  0  0  0  0  0  0  0
    1.1968    0.2303   -2.6505 H   0  0  0  0  0  0  0  0  0  0  0  0
    2.3043    0.3046   -1.2544 H   0  0  0  0  0  0  0  0  0  0  0  0
    1.9497   -1.2757   -1.9823 H   0  0  0  0  0  0  0  0  0  0  0  0
   -0.0102   -2.0780    0.5361 H   0  0  0  0  0  0  0  0  0  0  0  0
    1.6752   -1.5054    0.6763 H   0  0  0  0  0  0  0  0  0  0  0  0
    0.8667    0.3888    2.0533 H   0  0  0  0  0  0  0  0  0  0  0  0
   -0.4137   -0.8412    2.4725 H   0  0  0  0  0  0  0  0  0  0  0  0
   -1.4500    2.5150    1.1322 H   0  0  0  0  0  0  0  0  0  0  0  0
   -2.6947    0.2889   -0.4527 H   0  0  0  0  0  0  0  0  0  0  0  0
   -0.4371    1.7267   -1.0546 H   0  0  0  0  0  0  0  0  0  0  0  0
  4 15  1  0
  3 13  1  0
  3  4  1  0
  3 14  1  0
  2  3  1  0
  4 16  1  0
  4  5  1  0
  1 11  1  0
  5  6  1  0
  6 17  1  0
  5  9  1  0
  5  7  1  0
  9 19  1  0
  2  9  1  0
  7  9  1  0
  1  2  1  0
  2  8  1  0
  1 10  1  0
  1 12  1  0
  7  8  1  0
  7 18  1  0
M  END
$$$$

     RDKit          3D

 16 16  0  0  0  0  0  0  0  0999 V2000
   -0.1826   -0.6744   -2.6160 C   0  0  0  0  0  0  0  0  0  0  0  0
   -0.0472   -0.2805   -1.1949 C   0  0  0  0  0  0  0  0  0  0  0  0
   -0.8763   -0.5755   -0.2149 N   0  0  0  0  0  0  0  0  0  0  0  0
   -0.3419   -0.0038    0.9186 C   0  0  0  0  0  0  0  0  0  0  0  0
   -1.0288   -0.1494    2.2197 C   0  0  0  0  0  0  0  0  0  0  0  0
    0.8371    0.6453    0.6132 C   0  0  0  0  0  0  0  0  0  0  0  0
    1.7261    1.3330    1.3150 O   0  0  0  0  0  0  0  0  0  0  0  0
    1.0079    0.4611   -0.7297 N   0  0  0  0  0  0  0  0  0  0  0  0
   -1.1775   -0.4104   -2.9875 H   0  0  0  0  0  0  0  0  0  0  0  0
    0.5593   -0.1754   -3.2477 H   0  0  0  0  0  0  0  0  0  0  0  0
   -0.0507   -1.7558   -2.7208 H   0  0  0  0  0  0  0  0  0  0  0  0
   -2.1048   -0.2925    2.0766 H   0  0  0  0  0  0  0  0  0  0  0  0
   -0.6345   -1.0167    2.7595 H   0  0  0  0  0  0  0  0  0  0  0  0
   -0.8877    0.7414    2.8412 H   0  0  0  0  0  0  0  0  0  0  0  0
    1.4190    1.3410    2.2393 H   0  0  0  0  0  0  0  0  0  0  0  0
    1.7827    0.8127   -1.2717 H   0  0  0  0  0  0  0  0  0  0  0  0
  5 14  1  0
  5 13  1  0
  5 12  1  0
  4  5  1  0
  3  4  1  0
  2  3  2  0
  1 10  1  0
  4  6  2  0
  1  2  1  0
  2  8  1  0
  1  9  1  0
  1 11  1  0
  6  8  1  0
  6  7  1  0
  8 16  1  0
  7 15  1  0
M  END
$$$$

     RDKit          3D

 20 19  0  0  0  0  0  0  0  0999 V2000
   -0.5314    0.8587    2.2981 C   0  0  0  0  0  0  0  0  0  0  0  0
   -0.8098    1.6317    1.0818 N   0  0  0  0  0  0  0  0  0  0  0  0
    0.2024    1.6222    0.1161 C   0  0  0  0  0  0  0  0  0  0  0  0
    0.8467    2.6535   -0.1263 O   0  0  0  0  0  0  0  0  0  0  0  0
    0.4183    0.3640   -0.4739 N   0  0  0  0  0  0  0  0  0  0  0  0
    1.7585    0.1693   -0.9969 C   0  0  0  0  0  0  0  0  0  0  0  0
   -0.5741   -0.5881   -0.7106 C   0  0  0  0  0  0  0  0  0  0  0  0
   -0.1640   -1.9681   -1.1844 C   0  0  0  0  0  0  0  0  0  0  0  0
   -1.8178   -0.2838   -0.5086 N   0  0  0  0  0  0  0  0  0  0  0  0
    0.5255    0.6223    2.3649 H   0  0  0  0  0  0  0  0  0  0  0  0
   -0.8283    1.4423    3.1776 H   0  0  0  0  0  0  0  0  0  0  0  0
   -1.1220   -0.0574    2.2352 H   0  0  0  0  0  0  0  0  0  0  0  0
   -1.6209    1.2268    0.6272 H   0  0  0  0  0  0  0  0  0  0  0  0
    2.1146   -0.8392   -0.7703 H   0  0  0  0  0  0  0  0  0  0  0  0
    1.7676    0.3127   -2.0833 H   0  0  0  0  0  0  0  0  0  0  0  0
    2.4443    0.8780   -0.5224 H   0  0  0  0  0  0  0  0  0  0  0  0
    0.6523   -2.3435   -0.5605 H   0  0  0  0  0  0  0  0  0  0  0  0
   -0.9795   -2.6852   -1.0367 H   0  0  0  0  0  0  0  0  0  0  0  0
    0.1471   -1.9143   -2.2236 H   0  0  0  0  0  0  0  0  0  0  0  0
   -2.4293   -1.1019   -0.7032 H   0  0  0  0  0  0  0  0  0  0  0  0
  8 17  1  0
  1 10  1  0
  8 18  1  0
  8 19  1  0
  7  8  1  0
  3  4  2  0
  1 11  1  0
  1 12  1  0
  1  2  1  0
  2  3  1  0
  3  5  1  0
  2 13  1  0
  5  7  1  0
  7  9  2  3
  5  6  1  0
  9 20  1  0
  6 16  1  0
  6 14  1  0
  6 15  1  0
M  END
$$$$

     RDKit          3D

 18 18  0  0  0  0  0  0  0  0999 V2000
   -1.9704    0.2012   -0.5819 C   0  0  0  0  0  0  0  0  0  0  0  0
   -0.7758   -0.6960   -0.9376 C   0  0  0  0  0  0  0  0  0  0  0  0
    0.6049   -0.1521   -0.5239 C   0  0  0  0  0  0  0  0  0  0  0  0
    0.6655    1.3055   -0.6095 O   0  0  0  0  0  0  0  0  0  0  0  0
    0.6059    1.4075    0.8561 C   0  0  0  0  0  0  0  0  0  0  0  0
    1.0144   -0.0694    0.9932 C   0  0  0  0  0  0  0  0  0  0  0  0
    0.3089   -0.9071    1.9682 O   0  0  0  0  0  0  0  0  0  0  0  0
    1.6402   -0.7995   -1.3311 C   0  0  0  0  0  0  0  0  0  0  0  0
    2.4507   -1.4020   -1.9081 N   0  0  0  0  0  0  0  0  0  0  0  0
   -2.9206   -0.1874   -0.9872 H   0  0  0  0  0  0  0  0  0  0  0  0
   -2.0958    0.2304    0.5193 H   0  0  0  0  0  0  0  0  0  0  0  0
   -1.8058    1.2114   -0.9889 H   0  0  0  0  0  0  0  0  0  0  0  0
   -0.8168   -0.8147   -2.0297 H   0  0  0  0  0  0  0  0  0  0  0  0
   -0.9082   -1.6928   -0.4766 H   0  0  0  0  0  0  0  0  0  0  0  0
    1.2863    2.1804    1.2446 H   0  0  0  0  0  0  0  0  0  0  0  0
   -0.4116    1.6564    1.1621 H   0  0  0  0  0  0  0  0  0  0  0  0
    2.1118   -0.1499    1.1444 H   0  0  0  0  0  0  0  0  0  0  0  0
    1.0163   -1.3217    2.4866 H   0  0  0  0  0  0  0  0  0  0  0  0
  8  9  3  0
  3  8  1  0
  6 17  1  0
  5 15  1  0
  5  6  1  0
  3  6  1  0
  6  7  1  0
  4  5  1  0
  5 16  1  0
  3  4  1  0
  2  3  1  0
  7 18  1  0
  1 11  1  0
  2 14  1  0
  1  2  1  0
  2 13  1  0
  1 10  1  0
  1 12  1  0
M  END
$$$$

     RDKit          3D

 14 16  0  0  0  0  0  0  0  0999 V2000
   -0.9872    1.3158    2.2307 O   0  0  0  0  0  0  0  0  0  0  0  0
   -1.0317    1.0785    1.0339 C   0  0  0  0  0  0  0  0  0  0  0  0
   -2.1906    0.8021    0.3089 N   0  0  0  0  0  0  0  0  0  0  0  0
   -1.8998    0.1914   -0.9339 N   0  0  0  0  0  0  0  0  0  0  0  0
   -0.4359    0.3581   -1.1076 C   0  0  0  0  0  0  0  0  0  0  0  0
    0.3633   -0.8397   -0.7705 C   0  0  0  0  0  0  0  0  0  0  0  0
    1.8068   -0.8983   -0.6591 C   0  0  0  0  0  0  0  0  0  0  0  0
    1.0384   -0.0894    0.3916 C   0  0  0  0  0  0  0  0  0  0  0  0
    0.0435    0.9331    0.1528 N   0  0  0  0  0  0  0  0  0  0  0  0
   -3.0219    0.5552    0.8304 H   0  0  0  0  0  0  0  0  0  0  0  0
   -0.2363   -1.7055   -0.5185 H   0  0  0  0  0  0  0  0  0  0  0  0
    2.4005   -0.3568   -1.3863 H   0  0  0  0  0  0  0  0  0  0  0  0
    2.2657   -1.8258   -0.3319 H   0  0  0  0  0  0  0  0  0  0  0  0
    1.8853    0.4811    0.7595 H   0  0  0  0  0  0  0  0  0  0  0  0
  3 10  1  0
  2  9  1  0
  5  9  1  0
  8  9  1  0
  2  3  1  0
  3  4  1  0
  1  2  2  0
  8 14  1  0
  4  5  1  0
  5  6  1  0
  6 11  1  0
  6  8  1  0
  7  8  1  0
  6  7  1  0
  7 12  1  0
  7 13  1  0
M  END
$$$$

     RDKit          3D

 20 21  0  0  0  0  0  0  0  0999 V2000
   -2.6248    1.2130    0.4800 C   0  0  0  0  0  0  0  0  0  0  0  0
   -1.2623    0.8482   -0.1033 C   0  0  0  0  0  0  0  0  0  0  0  0
   -0.3356    0.5995    0.9992 N   0  0  0  0  0  0  0  0  0  0  0  0
    0.2652   -0.7322    0.9271 C   0  0  0  0  0  0  0  0  0  0  0  0
    1.0667    0.5254    0.6668 C   0  0  0  0  0  0  0  0  0  0  0  0
    1.5855   -0.0420   -0.6064 C   0  0  0  0  0  0  0  0  0  0  0  0
    3.0291   -0.0526   -0.8270 O   0  0  0  0  0  0  0  0  0  0  0  0
    0.9066   -1.3922   -0.2388 C   0  0  0  0  0  0  0  0  0  0  0  0
    0.0563   -2.0235   -1.2216 O   0  0  0  0  0  0  0  0  0  0  0  0
   -2.7499    2.3159    0.5295 H   0  0  0  0  0  0  0  0  0  0  0  0
   -2.7508    0.8334    1.5092 H   0  0  0  0  0  0  0  0  0  0  0  0
   -3.4331    0.8063   -0.1447 H   0  0  0  0  0  0  0  0  0  0  0  0
   -0.9157    1.6811   -0.7258 H   0  0  0  0  0  0  0  0  0  0  0  0
   -1.4030   -0.0212   -0.7629 H   0  0  0  0  0  0  0  0  0  0  0  0
    0.4302   -1.2660    1.8622 H   0  0  0  0  0  0  0  0  0  0  0  0
    1.8164    0.7679    1.4143 H   0  0  0  0  0  0  0  0  0  0  0  0
    1.1221    0.4396   -1.4741 H   0  0  0  0  0  0  0  0  0  0  0  0
    3.3536   -0.8418   -0.3569 H   0  0  0  0  0  0  0  0  0  0  0  0
    1.6284   -2.1467    0.1148 H   0  0  0  0  0  0  0  0  0  0  0  0
    0.2151   -1.5122   -2.0414 H   0  0  0  0  0  0  0  0  0  0  0  0
  9 20  1  0
  8  9  1  0
  8 19  1  0
  4  8  1  0
  6  8  1  0
  4 15  1  0
  1 11  1  0
  3  4  1  0
  4  5  1  0
  7 18  1  0
  6  7  1  0
  6 17  1  0
  5  6  1  0
  1 10  1  0
  1 12  1  0
  1  2  1  0
  2 13  1  0
  3  5  1  0
  2  3  1  0
  5 16  1  0
  2 14  1  0
M  END
$$$$

     RDKit          3D

 22 23  0  0  0  0  0  0  0  0999 V2000
    0.0998    0.3186   -2.4278 C   0  0  0  0  0  0  0  0  0  0  0  0
   -0.4281   -0.1541   -1.0795 C   0  0  0  0  0  0  0  0  0  0  0  0
   -0.8405    1.0238   -0.1718 C   0  0  0  0  0  0  0  0  0  0  0  0
   -2.1774    1.4375   -0.4127 O   0  0  0  0  0  0  0  0  0  0  0  0
   -0.6615    0.4593    1.2253 C   0  0  0  0  0  0  0  0  0  0  0  0
    0.4580   -0.5258    1.0837 C   0  0  0  0  0  0  0  0  0  0  0  0
    1.7141   -0.2062    1.8298 C   0  0  0  0  0  0  0  0  0  0  0  0
    0.1603   -1.9113    0.5417 C   0  0  0  0  0  0  0  0  0  0  0  0
    0.6459   -0.8980   -0.3624 N   0  0  0  0  0  0  0  0  0  0  0  0
    0.8378    1.1158   -2.2783 H   0  0  0  0  0  0  0  0  0  0  0  0
    0.5739   -0.4606   -3.0146 H   0  0  0  0  0  0  0  0  0  0  0  0
   -0.6904    0.7588   -3.0321 H   0  0  0  0  0  0  0  0  0  0  0  0
   -1.3128   -0.7630   -1.2631 H   0  0  0  0  0  0  0  0  0  0  0  0
   -0.1904    1.9079   -0.2808 H   0  0  0  0  0  0  0  0  0  0  0  0
   -2.1643    1.9329   -1.2581 H   0  0  0  0  0  0  0  0  0  0  0  0
   -1.6136   -0.0222    1.5501 H   0  0  0  0  0  0  0  0  0  0  0  0
   -0.4933    1.2768    1.9537 H   0  0  0  0  0  0  0  0  0  0  0  0
    2.2117    0.6896    1.3898 H   0  0  0  0  0  0  0  0  0  0  0  0
    1.5054    0.0192    2.8934 H   0  0  0  0  0  0  0  0  0  0  0  0
    2.4190   -1.0481    1.8079 H   0  0  0  0  0  0  0  0  0  0  0  0
    0.8293   -2.7178    0.8515 H   0  0  0  0  0  0  0  0  0  0  0  0
   -0.8830   -2.2330    0.4543 H   0  0  0  0  0  0  0  0  0  0  0  0
  4 15  1  0
  3 14  1  0
  3  4  1  0
  3  5  1  0
  2  3  1  0
  5 17  1  0
  5 16  1  0
  1 11  1  0
  5  6  1  0
  1 10  1  0
  2 13  1  0
  1  2  1  0
  2  9  1  0
  1 12  1  0
  8 22  1  0
  6  8  1  0
  6  9  1  0
  6  7  1  0
  8  9  1  0
  8 21  1  0
  7 18  1  0
  7 20  1  0
  7 19  1  0
M  END
$$$$

     RDKit          3D

 15 14  0  0  0  0  0  0  0  0999 V2000
   -1.9615    0.5447   -1.3514 C   0  0  0  0  0  0  0  0  0  0  0  0
   -0.8303    0.7888   -0.3847 C   0  0  0  0  0  0  0  0  0  0  0  0
   -0.9891    1.4490    0.6334 O   0  0  0  0  0  0  0  0  0  0  0  0
    0.3842    0.2895   -0.8175 N   0  0  0  0  0  0  0  0  0  0  0  0
    1.2958   -0.3708   -0.0346 C   0  0  0  0  0  0  0  0  0  0  0  0
    2.0235   -1.2172   -0.5723 O   0  0  0  0  0  0  0  0  0  0  0  0
    1.3250   -0.1691    1.4779 C   0  0  0  0  0  0  0  0  0  0  0  0
    0.6743   -1.2592    2.1180 O   0  0  0  0  0  0  0  0  0  0  0  0
   -1.5993    0.4448   -2.3789 H   0  0  0  0  0  0  0  0  0  0  0  0
   -2.6572    1.3881   -1.3163 H   0  0  0  0  0  0  0  0  0  0  0  0
   -2.4842   -0.3696   -1.0596 H   0  0  0  0  0  0  0  0  0  0  0  0
    0.4146   -0.0807   -1.7596 H   0  0  0  0  0  0  0  0  0  0  0  0
    0.8742    0.7717    1.7964 H   0  0  0  0  0  0  0  0  0  0  0  0
    2.3723   -0.1501    1.8032 H   0  0  0  0  0  0  0  0  0  0  0  0
    1.1576   -2.0601    1.8460 H   0  0  0  0  0  0  0  0  0  0  0  0
  1 10  1  0
  7 14  1  0
  5  6  2  0
  2  3  2  0
  7  8  1  0
  8 15  1  0
  4  5  1  0
  5  7  1  0
  2  4  1  0
  1  2  1  0
  1  9  1  0
  4 12  1  0
  1 11  1  0
  7 13  1  0
M  END
$$$$

     RDKit          3D

 23 24  0  0  0  0  0  0  0  0999 V2000
    0.4797    1.9057    1.4975 C   0  0  0  0  0  0  0  0  0  0  0  0
   -0.2588    1.8685    0.1866 C   0  0  0  0  0  0  0  0  0  0  0  0
    0.8409    1.4408   -0.8062 C   0  0  0  0  0  0  0  0  0  0  0  0
   -0.0823   -0.0326   -0.3279 C   0  0  0  0  0  0  0  0  0  0  0  0
   -1.0666    0.7714   -1.0977 C   0  0  0  0  0  0  0  0  0  0  0  0
    0.2634   -1.4241   -0.2191 C   0  0  0  0  0  0  0  0  0  0  0  0
   -0.1151   -2.4067   -1.2008 C   0  0  0  0  0  0  0  0  0  0  0  0
    0.0551   -1.7698    1.2776 C   0  0  0  0  0  0  0  0  0  0  0  0
    1.3628   -1.8136    0.6866 O   0  0  0  0  0  0  0  0  0  0  0  0
    1.1258    2.7968    1.7855 H   0  0  0  0  0  0  0  0  0  0  0  0
    1.1429    0.9347    1.6408 H   0  0  0  0  0  0  0  0  0  0  0  0
   -0.1145    1.9305    2.4842 H   0  0  0  0  0  0  0  0  0  0  0  0
   -0.8254    2.7223   -0.0280 H   0  0  0  0  0  0  0  0  0  0  0  0
    1.6410    0.8609   -1.3310 H   0  0  0  0  0  0  0  0  0  0  0  0
    0.4529    2.2056   -1.6045 H   0  0  0  0  0  0  0  0  0  0  0  0
   -0.4320    0.1452    0.7125 H   0  0  0  0  0  0  0  0  0  0  0  0
   -1.9138    0.1616   -1.0210 H   0  0  0  0  0  0  0  0  0  0  0  0
   -1.3864    1.7108   -1.7678 H   0  0  0  0  0  0  0  0  0  0  0  0
    0.2426   -2.2285   -2.2405 H   0  0  0  0  0  0  0  0  0  0  0  0
    0.3774   -3.3647   -0.9086 H   0  0  0  0  0  0  0  0  0  0  0  0
   -1.1540   -2.5752   -1.1978 H   0  0  0  0  0  0  0  0  0  0  0  0
   -0.1749   -1.0451    2.0737 H   0  0  0  0  0  0  0  0  0  0  0  0
   -0.4608   -2.7946    1.4060 H   0  0  0  0  0  0  0  0  0  0  0  0
  3 15  1  0
  7 21  1  0
  7 19  1  0
  1 11  1  0
  3 14  1  0
  7 20  1  0
  6  7  1  0
  3  4  1  0
  2  3  1  0
  1 10  1  0
  1  2  1  0
  1 12  1  0
  4 16  1  0
  4  6  1  0
  4  5  1  0
  2 13  1  0
  2  5  1  0
  6  9  1  0
  6  8  1  0
  8  9  1  0
  5 18  1  0
  5 17  1  0
  8 22  1  0
  8 23  1  0
M  END
$$$$

     RDKit          3D

 18 19  0  0  0  0  0  0  0  0999 V2000
    0.9033    1.7668   -1.7722 O   0  0  0  0  0  0  0  0  0  0  0  0
    0.3883    0.4174   -1.4519 C   0  0  0  0  0  0  0  0  0  0  0  0
    1.2977   -0.4010   -0.3989 C   0  0  0  0  0  0  0  0  0  0  0  0
    0.8576   -0.3952    1.0896 C   0  0  0  0  0  0  0  0  0  0  0  0
   -0.4623   -1.0458    1.5645 N   0  0  0  0  0  0  0  0  0  0  0  0
   -1.3958   -1.2599    0.4750 C   0  0  0  0  0  0  0  0  0  0  0  0
   -1.2566    0.0926    1.1115 C   0  0  0  0  0  0  0  0  0  0  0  0
   -0.0061    0.8780    1.3990 C   0  0  0  0  0  0  0  0  0  0  0  0
    0.1023    2.0545    1.6799 O   0  0  0  0  0  0  0  0  0  0  0  0
    0.5077    1.8594   -2.6626 H   0  0  0  0  0  0  0  0  0  0  0  0
    0.0216   -0.1834   -2.5697 H   0  0  0  0  0  0  0  0  0  0  0  0
   -0.6602    0.4126   -1.0577 H   0  0  0  0  0  0  0  0  0  0  0  0
    2.3844    0.0204   -0.3357 H   0  0  0  0  0  0  0  0  0  0  0  0
    1.2857   -1.4135   -0.6284 H   0  0  0  0  0  0  0  0  0  0  0  0
    1.6947   -0.5030    1.8056 H   0  0  0  0  0  0  0  0  0  0  0  0
   -1.0554   -1.3517   -0.5522 H   0  0  0  0  0  0  0  0  0  0  0  0
   -2.4872   -1.4947    0.5829 H   0  0  0  0  0  0  0  0  0  0  0  0
   -2.1197    0.5464    1.7214 H   0  0  0  0  0  0  0  0  0  0  0  0
  2 11  1  0
  3 14  1  0
  4 15  1  0
  1 10  1  0
  1  2  1  0
  8  9  2  0
  2  3  1  0
  2 12  1  0
  3  4  1  0
  3 13  1  0
  4  8  1  0
  4  5  1  0
  7  8  1  0
  5  7  1  0
  5  6  1  0
  7 18  1  0
  6  7  1  0
  6 17  1  0
  6 16  1  0
M  END
$$$$

     RDKit          3D

 19 20  0  0  0  0  0  0  0  0999 V2000
   -0.0641    0.7320   -2.1235 C   0  0  0  0  0  0  0  0  0  0  0  0
    0.2812   -0.2600   -1.0268 C   0  0  0  0  0  0  0  0  0  0  0  0
    0.9973    0.2524    0.2504 C   0  0  0  0  0  0  0  0  0  0  0  0
    1.4130    1.6342    0.3060 O   0  0  0  0  0  0  0  0  0  0  0  0
   -0.2521   -0.0973    1.0828 C   0  0  0  0  0  0  0  0  0  0  0  0
   -0.9364    0.9603    1.7697 O   0  0  0  0  0  0  0  0  0  0  0  0
   -0.2566   -1.5193    1.6320 C   0  0  0  0  0  0  0  0  0  0  0  0
   -0.8649   -2.0385    0.4168 O   0  0  0  0  0  0  0  0  0  0  0  0
   -0.9090   -0.7123   -0.1501 C   0  0  0  0  0  0  0  0  0  0  0  0
   -0.6302    0.2388   -2.9145 H   0  0  0  0  0  0  0  0  0  0  0  0
    0.8553    1.1354   -2.5713 H   0  0  0  0  0  0  0  0  0  0  0  0
   -0.6672    1.5625   -1.7402 H   0  0  0  0  0  0  0  0  0  0  0  0
    0.8083   -1.1120   -1.4712 H   0  0  0  0  0  0  0  0  0  0  0  0
    1.8608   -0.3631    0.5144 H   0  0  0  0  0  0  0  0  0  0  0  0
    0.6744    2.1486   -0.0906 H   0  0  0  0  0  0  0  0  0  0  0  0
   -0.2137    1.4801    2.1917 H   0  0  0  0  0  0  0  0  0  0  0  0
    0.7263   -1.9821    1.8202 H   0  0  0  0  0  0  0  0  0  0  0  0
   -0.9011   -1.6779    2.5048 H   0  0  0  0  0  0  0  0  0  0  0  0
   -1.9215   -0.3816   -0.4004 H   0  0  0  0  0  0  0  0  0  0  0  0
  4 15  1  0
  3  4  1  0
  3 14  1  0
  1 11  1  0
  2  3  1  0
  3  5  1  0
  6 16  1  0
  1  2  1  0
  1 10  1  0
  1 12  1  0
  7 18  1  0
  2 13  1  0
  2  9  1  0
  5  6  1  0
  5  7  1  0
  5  9  1  0
  7 17  1  0
  7  8  1  0
  8  9  1  0
  9 19  1  0
M  END
$$$$

     RDKit          3D

 18 17  0  0  0  0  0  0  0  0999 V2000
   -0.1945    1.9629    0.1978 C   0  0  0  0  0  0  0  0  0  0  0  0
   -0.9234    0.7007   -0.2575 C   0  0  0  0  0  0  0  0  0  0  0  0
   -0.0998   -0.6088   -0.1676 C   0  0  0  0  0  0  0  0  0  0  0  0
    0.0801   -1.0245    1.3060 C   0  0  0  0  0  0  0  0  0  0  0  0
    1.2828   -0.4571   -0.8239 C   0  0  0  0  0  0  0  0  0  0  0  0
   -0.8525   -1.6810   -0.8649 C   0  0  0  0  0  0  0  0  0  0  0  0
   -1.4236   -2.5307   -1.4148 N   0  0  0  0  0  0  0  0  0  0  0  0
    0.5900    2.2324   -0.5163 H   0  0  0  0  0  0  0  0  0  0  0  0
    0.2433    1.8492    1.1882 H   0  0  0  0  0  0  0  0  0  0  0  0
   -0.9000    2.7929    0.2310 H   0  0  0  0  0  0  0  0  0  0  0  0
   -1.2644    0.8522   -1.2963 H   0  0  0  0  0  0  0  0  0  0  0  0
   -1.8404    0.5890    0.3474 H   0  0  0  0  0  0  0  0  0  0  0  0
    0.6318   -1.9688    1.3840 H   0  0  0  0  0  0  0  0  0  0  0  0
   -0.8909   -1.1687    1.8061 H   0  0  0  0  0  0  0  0  0  0  0  0
    0.6450   -0.2781    1.8768 H   0  0  0  0  0  0  0  0  0  0  0  0
    1.7969   -1.4209   -0.9012 H   0  0  0  0  0  0  0  0  0  0  0  0
    1.1932   -0.0678   -1.8405 H   0  0  0  0  0  0  0  0  0  0  0  0
    1.9263    0.2270   -0.2541 H   0  0  0  0  0  0  0  0  0  0  0  0
  5 16  1  0
  5 17  1  0
  5 18  1  0
  3  5  1  0
  2 11  1  0
  1  9  1  0
  6  7  3  0
  1  8  1  0
  1  2  1  0
  2  3  1  0
  2 12  1  0
  3  6  1  0
  1 10  1  0
  3  4  1  0
  4 13  1  0
  4 14  1  0
  4 15  1  0
M  END
$$$$

     RDKit          3D

 18 19  0  0  0  0  0  0  0  0999 V2000
    0.4071    1.7496    1.5909 C   0  0  0  0  0  0  0  0  0  0  0  0
   -0.2356    1.8517    0.3157 O   0  0  0  0  0  0  0  0  0  0  0  0
   -0.9683    0.6068    0.0528 C   0  0  0  0  0  0  0  0  0  0  0  0
   -1.2640    0.2165   -1.3427 C   0  0  0  0  0  0  0  0  0  0  0  0
   -0.1260   -0.4466   -0.6301 C   0  0  0  0  0  0  0  0  0  0  0  0
    1.2582   -0.4243   -1.0655 C   0  0  0  0  0  0  0  0  0  0  0  0
    1.4431   -1.7376   -0.4838 O   0  0  0  0  0  0  0  0  0  0  0  0
    0.1953   -1.5942    0.2314 C   0  0  0  0  0  0  0  0  0  0  0  0
   -0.6640   -2.7725    0.3122 N   0  0  0  0  0  0  0  0  0  0  0  0
    0.3391    2.7130    2.0980 H   0  0  0  0  0  0  0  0  0  0  0  0
    1.4796    1.5148    1.4345 H   0  0  0  0  0  0  0  0  0  0  0  0
   -0.0428    0.9523    2.1494 H   0  0  0  0  0  0  0  0  0  0  0  0
   -1.7627    0.3152    0.7321 H   0  0  0  0  0  0  0  0  0  0  0  0
   -2.2242   -0.3172   -1.5387 H   0  0  0  0  0  0  0  0  0  0  0  0
   -0.9795    0.9493   -2.1170 H   0  0  0  0  0  0  0  0  0  0  0  0
    1.4311   -0.4911   -2.1328 H   0  0  0  0  0  0  0  0  0  0  0  0
    1.9441    0.3225   -0.6255 H   0  0  0  0  0  0  0  0  0  0  0  0
   -0.2305   -3.4082    1.0191 H   0  0  0  0  0  0  0  0  0  0  0  0
  9 18  1  0
  8  9  1  0
  7  8  1  0
  5  8  1  0
  6  7  1  0
  3 13  1  0
  5  6  1  0
  3  5  1  0
  4  5  1  0
  4 14  1  0
  6 17  1  0
  6 16  1  0
  3  4  1  0
  2  3  1  0
  4 15  1  0
  1 10  1  0
  1 11  1  0
  1  2  1  0
  1 12  1  0
M  END
$$$$

     RDKit          3D

 19 18  0  0  0  0  0  0  0  0999 V2000
   -1.3146    3.1313    1.2750 C   0  0  0  0  0  0  0  0  0  0  0  0
   -1.0101    1.7281    1.1838 C   0  0  0  0  0  0  0  0  0  0  0  0
   -0.6001    0.5890    1.0316 C   0  0  0  0  0  0  0  0  0  0  0  0
   -0.0725   -0.7819    0.7725 C   0  0  0  0  0  0  0  0  0  0  0  0
    0.1948   -1.2391   -0.6914 C   0  0  0  0  0  0  0  0  0  0  0  0
    1.5227   -1.9142   -0.9889 C   0  0  0  0  0  0  0  0  0  0  0  0
    2.2709   -2.2176    0.2665 O   0  0  0  0  0  0  0  0  0  0  0  0
   -0.2614   -0.2161   -1.6171 C   0  0  0  0  0  0  0  0  0  0  0  0
   -0.7788    0.7458   -2.0813 C   0  0  0  0  0  0  0  0  0  0  0  0
   -0.5394    3.6133    1.8636 H   0  0  0  0  0  0  0  0  0  0  0  0
   -2.3000    3.2357    1.7713 H   0  0  0  0  0  0  0  0  0  0  0  0
   -1.3592    3.5917    0.2846 H   0  0  0  0  0  0  0  0  0  0  0  0
   -0.7311   -1.5747    1.1994 H   0  0  0  0  0  0  0  0  0  0  0  0
    0.8571   -0.8312    1.4201 H   0  0  0  0  0  0  0  0  0  0  0  0
   -0.5182   -2.0778   -0.8056 H   0  0  0  0  0  0  0  0  0  0  0  0
    2.3145   -1.3275   -1.5752 H   0  0  0  0  0  0  0  0  0  0  0  0
    1.3089   -2.8399   -1.4765 H   0  0  0  0  0  0  0  0  0  0  0  0
    2.4649   -3.1921    0.2352 H   0  0  0  0  0  0  0  0  0  0  0  0
   -1.4484    1.5771   -2.0675 H   0  0  0  0  0  0  0  0  0  0  0  0
  6 17  1  0
  6 16  1  0
  6  7  1  0
  5  6  1  0
  7 18  1  0
  4 13  1  0
  1 11  1  0
  3  4  1  0
  4  5  1  0
  4 14  1  0
  2  3  3  0
  5  8  1  0
  5 15  1  0
  1  2  1  0
  1 12  1  0
  1 10  1  0
  8  9  3  0
  9 19  1  0
M  END
$$$$

     RDKit          3D

 19 19  0  0  0  0  0  0  0  0999 V2000
    1.0378    1.9550   -2.4575 C   0  0  0  0  0  0  0  0  0  0  0  0
    1.4497    0.9949   -1.8388 C   0  0  0  0  0  0  0  0  0  0  0  0
    1.8005   -0.1507   -0.9469 C   0  0  0  0  0  0  0  0  0  0  0  0
    0.6287   -0.2947   -0.0029 C   0  0  0  0  0  0  0  0  0  0  0  0
    0.6062    0.1404    1.2705 C   0  0  0  0  0  0  0  0  0  0  0  0
   -0.5754    0.1243    2.1634 C   0  0  0  0  0  0  0  0  0  0  0  0
   -1.6610   -0.7193    1.6688 O   0  0  0  0  0  0  0  0  0  0  0  0
   -1.9062   -0.5450    0.2690 C   0  0  0  0  0  0  0  0  0  0  0  0
   -0.6333   -0.9981   -0.5313 C   0  0  0  0  0  0  0  0  0  0  0  0
    0.5677    2.8010   -2.9524 H   0  0  0  0  0  0  0  0  0  0  0  0
    2.7164    0.0755   -0.3881 H   0  0  0  0  0  0  0  0  0  0  0  0
    1.8984   -1.0875   -1.5150 H   0  0  0  0  0  0  0  0  0  0  0  0
    1.5575    0.3584    1.8168 H   0  0  0  0  0  0  0  0  0  0  0  0
   -0.9993    1.1506    2.2083 H   0  0  0  0  0  0  0  0  0  0  0  0
   -0.3319   -0.2104    3.2136 H   0  0  0  0  0  0  0  0  0  0  0  0
   -2.6842   -1.2555   -0.0156 H   0  0  0  0  0  0  0  0  0  0  0  0
   -2.1547    0.5048    0.0357 H   0  0  0  0  0  0  0  0  0  0  0  0
   -0.8137   -0.7444   -1.5826 H   0  0  0  0  0  0  0  0  0  0  0  0
   -0.5032   -2.0993   -0.4151 H   0  0  0  0  0  0  0  0  0  0  0  0
  5 13  1  0
  6 14  1  0
  6 15  1  0
  5  6  1  0
  4  5  2  0
  3 11  1  0
  6  7  1  0
  3  4  1  0
  2  3  1  0
  3 12  1  0
  4  9  1  0
  7  8  1  0
  1  2  3  0
  1 10  1  0
  8 16  1  0
  8  9  1  0
  8 17  1  0
  9 19  1  0
  9 18  1  0
M  END
$$$$

     RDKit          3D

 27 26  0  0  0  0  0  0  0  0999 V2000
   -2.2476    0.5693    0.5330 C   0  0  0  0  0  0  0  0  0  0  0  0
   -1.3607    1.7313    0.9876 C   0  0  0  0  0  0  0  0  0  0  0  0
    0.1082    1.6000    1.4641 C   0  0  0  0  0  0  0  0  0  0  0  0
    1.1517    1.1654    0.7190 O   0  0  0  0  0  0  0  0  0  0  0  0
    1.7699   -0.0433    1.1613 C   0  0  0  0  0  0  0  0  0  0  0  0
    1.3496   -1.2666    0.2444 C   0  0  0  0  0  0  0  0  0  0  0  0
    0.4258   -0.9196   -0.9111 C   0  0  0  0  0  0  0  0  0  0  0  0
    0.8820    0.0918   -1.9570 C   0  0  0  0  0  0  0  0  0  0  0  0
   -0.3060   -2.1129   -1.5536 C   0  0  0  0  0  0  0  0  0  0  0  0
   -2.1759    0.3717   -0.5254 H   0  0  0  0  0  0  0  0  0  0  0  0
   -1.9872   -0.3774    1.0871 H   0  0  0  0  0  0  0  0  0  0  0  0
   -3.3004    0.8013    0.6852 H   0  0  0  0  0  0  0  0  0  0  0  0
   -1.4325    2.4781    0.1194 H   0  0  0  0  0  0  0  0  0  0  0  0
   -1.9448    2.2632    1.8009 H   0  0  0  0  0  0  0  0  0  0  0  0
    0.4868    2.6387    1.7200 H   0  0  0  0  0  0  0  0  0  0  0  0
    0.0467    1.1924    2.5120 H   0  0  0  0  0  0  0  0  0  0  0  0
    1.5100   -0.2764    2.2501 H   0  0  0  0  0  0  0  0  0  0  0  0
    2.8627    0.0002    1.1105 H   0  0  0  0  0  0  0  0  0  0  0  0
    0.8951   -2.0355    0.8998 H   0  0  0  0  0  0  0  0  0  0  0  0
    2.2882   -1.6933   -0.2111 H   0  0  0  0  0  0  0  0  0  0  0  0
   -0.3562   -0.3737   -0.3919 H   0  0  0  0  0  0  0  0  0  0  0  0
    1.9378    0.1723   -2.2692 H   0  0  0  0  0  0  0  0  0  0  0  0
    0.7394    1.0908   -1.5359 H   0  0  0  0  0  0  0  0  0  0  0  0
    0.1967    0.1502   -2.9020 H   0  0  0  0  0  0  0  0  0  0  0  0
    0.1621   -3.0506   -1.1833 H   0  0  0  0  0  0  0  0  0  0  0  0
   -0.3351   -2.0352   -2.6675 H   0  0  0  0  0  0  0  0  0  0  0  0
   -1.3663   -2.1321   -1.1864 H   0  0  0  0  0  0  0  0  0  0  0  0
  8 23  1  0
  7 21  1  0
  9 26  1  0
  8 24  1  0
  7  8  1  0
  8 22  1  0
  7  9  1  0
  6  7  1  0
  9 25  1  0
  9 27  1  0
  5 17  1  0
  5 18  1  0
  5  6  1  0
  4  5  1  0
  6 20  1  0
  6 19  1  0
  3 15  1  0
  3  4  1  0
  3 16  1  0
  2  3  1  0
  1 11  1  0
  2 14  1  0
  1  2  1  0
  2 13  1  0
  1 10  1  0
  1 12  1  0
M  END
$$$$

     RDKit          3D

 22 22  0  0  0  0  0  0  0  0999 V2000
    0.0048    1.3691    2.2548 C   0  0  0  0  0  0  0  0  0  0  0  0
   -0.0757    0.7710    0.9352 N   0  0  0  0  0  0  0  0  0  0  0  0
   -1.2534   -0.0461    0.6506 C   0  0  0  0  0  0  0  0  0  0  0  0
   -1.0290   -1.3423   -0.1586 C   0  0  0  0  0  0  0  0  0  0  0  0
    0.4139   -1.5983   -0.6021 C   0  0  0  0  0  0  0  0  0  0  0  0
    0.8655   -0.6362   -1.7136 C   0  0  0  0  0  0  0  0  0  0  0  0
    0.5286    0.8324   -1.4440 C   0  0  0  0  0  0  0  0  0  0  0  0
    0.8644    1.1734   -0.0076 C   0  0  0  0  0  0  0  0  0  0  0  0
    1.9886    1.5918    0.3100 O   0  0  0  0  0  0  0  0  0  0  0  0
   -0.2277    0.5730    2.9634 H   0  0  0  0  0  0  0  0  0  0  0  0
    1.0031    1.7528    2.4650 H   0  0  0  0  0  0  0  0  0  0  0  0
   -0.7296    2.1900    2.2807 H   0  0  0  0  0  0  0  0  0  0  0  0
   -1.9945    0.6168    0.1522 H   0  0  0  0  0  0  0  0  0  0  0  0
   -1.7150   -0.3601    1.6068 H   0  0  0  0  0  0  0  0  0  0  0  0
   -1.3942   -2.2048    0.4195 H   0  0  0  0  0  0  0  0  0  0  0  0
   -1.6474   -1.2754   -1.0643 H   0  0  0  0  0  0  0  0  0  0  0  0
    0.4924   -2.6459   -0.9659 H   0  0  0  0  0  0  0  0  0  0  0  0
    1.0873   -1.5615    0.2684 H   0  0  0  0  0  0  0  0  0  0  0  0
    1.9456   -0.7251   -1.8950 H   0  0  0  0  0  0  0  0  0  0  0  0
    0.3433   -0.9684   -2.6332 H   0  0  0  0  0  0  0  0  0  0  0  0
   -0.5227    1.0214   -1.6588 H   0  0  0  0  0  0  0  0  0  0  0  0
    1.0518    1.4723   -2.1634 H   0  0  0  0  0  0  0  0  0  0  0  0
  5 18  1  0
  4 16  1  0
  6 20  1  0
  4  5  1  0
  5  6  1  0
  5 17  1  0
  4 15  1  0
  6 19  1  0
  3  4  1  0
  6  7  1  0
  1 11  1  0
  2  3  1  0
  3 14  1  0
  3 13  1  0
  7  8  1  0
  7 22  1  0
  7 21  1  0
  1  2  1  0
  2  8  1  0
  1 10  1  0
  1 12  1  0
  8  9  2  0
M  END
$$$$

     RDKit          3D

 17 17  0  0  0  0  0  0  0  0999 V2000
    0.3827    2.4078    0.8503 N   0  0  0  0  0  0  0  0  0  0  0  0
   -0.5934    1.3028    0.7339 C   0  0  0  0  0  0  0  0  0  0  0  0
   -0.3136    0.2296   -0.3629 C   0  0  0  0  0  0  0  0  0  0  0  0
   -1.1852   -0.9010   -0.1249 O   0  0  0  0  0  0  0  0  0  0  0  0
   -0.3329   -2.0402   -0.2327 C   0  0  0  0  0  0  0  0  0  0  0  0
    0.9841   -1.5334    0.2841 C   0  0  0  0  0  0  0  0  0  0  0  0
    1.0644   -0.2076   -0.2389 O   0  0  0  0  0  0  0  0  0  0  0  0
   -0.5583    0.7961   -1.7126 C   0  0  0  0  0  0  0  0  0  0  0  0
   -0.7471    1.2417   -2.7700 N   0  0  0  0  0  0  0  0  0  0  0  0
    1.3228    2.0020    0.8706 H   0  0  0  0  0  0  0  0  0  0  0  0
    0.3596    2.9789    0.0030 H   0  0  0  0  0  0  0  0  0  0  0  0
   -0.6087    0.7982    1.7084 H   0  0  0  0  0  0  0  0  0  0  0  0
   -1.5978    1.7247    0.6038 H   0  0  0  0  0  0  0  0  0  0  0  0
   -0.2718   -2.3246   -1.2890 H   0  0  0  0  0  0  0  0  0  0  0  0
   -0.7313   -2.8782    0.3446 H   0  0  0  0  0  0  0  0  0  0  0  0
    0.9882   -1.4665    1.3776 H   0  0  0  0  0  0  0  0  0  0  0  0
    1.8381   -2.1303   -0.0453 H   0  0  0  0  0  0  0  0  0  0  0  0
  2 13  1  0
  1 10  1  0
  1  2  1  0
  1 11  1  0
  2 12  1  0
  2  3  1  0
  3  8  1  0
  3  7  1  0
  3  4  1  0
  8  9  3  0
  6  7  1  0
  4  5  1  0
  6 17  1  0
  6 16  1  0
  5  6  1  0
  5 14  1  0
  5 15  1  0
M  END
$$$$

     RDKit          3D

 16 16  0  0  0  0  0  0  0  0999 V2000
    1.4741    0.4689   -1.0605 C   0  0  0  0  0  0  0  0  0  0  0  0
    0.3540   -0.0093   -0.2850 N   0  0  0  0  0  0  0  0  0  0  0  0
   -0.5197    0.7632    0.4478 C   0  0  0  0  0  0  0  0  0  0  0  0
   -0.4281    2.1074    0.5285 N   0  0  0  0  0  0  0  0  0  0  0  0
   -1.4428   -0.0790    1.0219 C   0  0  0  0  0  0  0  0  0  0  0  0
   -1.1208   -1.4018    0.6304 C   0  0  0  0  0  0  0  0  0  0  0  0
   -0.0096   -1.3346   -0.1802 C   0  0  0  0  0  0  0  0  0  0  0  0
    0.6712   -2.2895   -0.8049 O   0  0  0  0  0  0  0  0  0  0  0  0
    1.0961    0.8370   -2.0190 H   0  0  0  0  0  0  0  0  0  0  0  0
    1.9783    1.2698   -0.5102 H   0  0  0  0  0  0  0  0  0  0  0  0
    2.1890   -0.3428   -1.2230 H   0  0  0  0  0  0  0  0  0  0  0  0
    0.4016    2.6176    0.2425 H   0  0  0  0  0  0  0  0  0  0  0  0
   -0.9713    2.6041    1.2258 H   0  0  0  0  0  0  0  0  0  0  0  0
   -2.2686    0.2238    1.6518 H   0  0  0  0  0  0  0  0  0  0  0  0
   -1.6510   -2.3011    0.9089 H   0  0  0  0  0  0  0  0  0  0  0  0
    0.2477   -3.1340   -0.5748 H   0  0  0  0  0  0  0  0  0  0  0  0
  4 13  1  0
  4 12  1  0
  3  4  1  0
  5 14  1  0
  3  5  2  0
  2  3  1  0
  1 10  1  0
  5  6  1  0
  1  2  1  0
  2  7  1  0
  1  9  1  0
  1 11  1  0
  6  7  2  0
  6 15  1  0
  7  8  1  0
  8 16  1  0
M  END
$$$$

     RDKit          3D

 17 17  0  0  0  0  0  0  0  0999 V2000
   -0.1779   -0.0403    1.7888 O   0  0  0  0  0  0  0  0  0  0  0  0
   -0.5688   -0.8758    0.6903 C   0  0  0  0  0  0  0  0  0  0  0  0
    0.6424   -1.5594    0.0604 C   0  0  0  0  0  0  0  0  0  0  0  0
    0.9327   -0.9126   -1.2004 O   0  0  0  0  0  0  0  0  0  0  0  0
    0.1494    0.2917   -1.2695 C   0  0  0  0  0  0  0  0  0  0  0  0
    0.9507    1.4114   -0.7495 C   0  0  0  0  0  0  0  0  0  0  0  0
    1.6452    2.3027   -0.3418 C   0  0  0  0  0  0  0  0  0  0  0  0
   -1.1053   -0.0249   -0.4528 C   0  0  0  0  0  0  0  0  0  0  0  0
   -1.8455    1.0974    0.0232 O   0  0  0  0  0  0  0  0  0  0  0  0
   -0.4860   -0.4897    2.6059 H   0  0  0  0  0  0  0  0  0  0  0  0
   -1.3228   -1.5846    1.0493 H   0  0  0  0  0  0  0  0  0  0  0  0
    1.5327   -1.4987    0.7129 H   0  0  0  0  0  0  0  0  0  0  0  0
    0.4492   -2.6219   -0.1634 H   0  0  0  0  0  0  0  0  0  0  0  0
   -0.0935    0.5071   -2.3215 H   0  0  0  0  0  0  0  0  0  0  0  0
    2.2895    3.0780    0.0101 H   0  0  0  0  0  0  0  0  0  0  0  0
   -1.7754   -0.6455   -1.0684 H   0  0  0  0  0  0  0  0  0  0  0  0
   -1.2166    1.5649    0.6264 H   0  0  0  0  0  0  0  0  0  0  0  0
  8 16  1  0
  8  9  1  0
  9 17  1  0
  2 11  1  0
  2  8  1  0
  5  8  1  0
  1 10  1  0
  1  2  1  0
  2  3  1  0
  5 14  1  0
  4  5  1  0
  5  6  1  0
  3 12  1  0
  3  4  1  0
  3 13  1  0
  6  7  3  0
  7 15  1  0
M  END
$$$$

     RDKit          3D

 17 16  0  0  0  0  0  0  0  0999 V2000
    2.6293    2.5785   -0.0154 C   0  0  0  0  0  0  0  0  0  0  0  0
    1.7128    1.4721    0.2686 C   0  0  0  0  0  0  0  0  0  0  0  0
    0.9724    0.5563    0.5034 C   0  0  0  0  0  0  0  0  0  0  0  0
    0.0874   -0.5582    0.7714 C   0  0  0  0  0  0  0  0  0  0  0  0
    0.1506   -1.1431    1.8467 O   0  0  0  0  0  0  0  0  0  0  0  0
   -0.8764   -0.9245   -0.3247 C   0  0  0  0  0  0  0  0  0  0  0  0
   -2.3035   -0.5462    0.0718 C   0  0  0  0  0  0  0  0  0  0  0  0
   -0.7932   -2.4005   -0.6070 C   0  0  0  0  0  0  0  0  0  0  0  0
   -0.6683   -2.8571   -1.7416 O   0  0  0  0  0  0  0  0  0  0  0  0
    2.3720    3.4619    0.5762 H   0  0  0  0  0  0  0  0  0  0  0  0
    2.5848    2.8576   -1.0764 H   0  0  0  0  0  0  0  0  0  0  0  0
    3.6595    2.2915    0.2162 H   0  0  0  0  0  0  0  0  0  0  0  0
   -0.5931   -0.3929   -1.2405 H   0  0  0  0  0  0  0  0  0  0  0  0
   -2.7670    0.0454   -0.7321 H   0  0  0  0  0  0  0  0  0  0  0  0
   -2.3382    0.0582    0.9883 H   0  0  0  0  0  0  0  0  0  0  0  0
   -2.9415   -1.4256    0.2304 H   0  0  0  0  0  0  0  0  0  0  0  0
   -0.8876   -3.0736    0.2648 H   0  0  0  0  0  0  0  0  0  0  0  0
  8  9  2  0
  1 10  1  0
  8 17  1  0
  6  8  1  0
  1 11  1  0
  1  2  1  0
  1 12  1  0
  2  3  3  0
  3  4  1  0
  6 13  1  0
  4  6  1  0
  6  7  1  0
  4  5  2  0
  7 14  1  0
  7 16  1  0
  7 15  1  0
M  END
$$$$

     RDKit          3D

 16 18  0  0  0  0  0  0  0  0999 V2000
   -1.6769    1.5670    0.4320 O   0  0  0  0  0  0  0  0  0  0  0  0
   -0.4195    1.4648   -0.3116 C   0  0  0  0  0  0  0  0  0  0  0  0
   -0.7356   -0.3261   -1.2119 C   0  0  0  0  0  0  0  0  0  0  0  0
   -0.4256   -1.6700   -0.0492 C   0  0  0  0  0  0  0  0  0  0  0  0
    0.4841   -0.8974    1.2498 C   0  0  0  0  0  0  0  0  0  0  0  0
    0.7216   -1.5474    2.2417 O   0  0  0  0  0  0  0  0  0  0  0  0
    0.9466    0.9493    0.9092 C   0  0  0  0  0  0  0  0  0  0  0  0
    1.6780    0.8605   -0.4089 N   0  0  0  0  0  0  0  0  0  0  0  0
    0.3877    0.5098   -1.0494 C   0  0  0  0  0  0  0  0  0  0  0  0
   -2.2989    2.0514   -0.1404 H   0  0  0  0  0  0  0  0  0  0  0  0
   -0.8175   -0.6005   -2.2741 H   0  0  0  0  0  0  0  0  0  0  0  0
   -1.4223   -2.0702    0.2531 H   0  0  0  0  0  0  0  0  0  0  0  0
    0.3143   -2.3586   -0.4740 H   0  0  0  0  0  0  0  0  0  0  0  0
    1.0735    1.8163    1.5341 H   0  0  0  0  0  0  0  0  0  0  0  0
    2.4039    0.1470   -0.4324 H   0  0  0  0  0  0  0  0  0  0  0  0
   -0.2135    0.1040   -0.2681 H   0  0  0  0  0  0  0  0  0  0  0  0
  5  6  2  0
  4 13  1  0
  4  5  1  0
  5  7  1  0
  4 12  1  0
  3  4  1  0
  7 14  1  0
  2  7  1  0
  7  8  1  0
  2  3  1  0
  3 11  1  0
  3  9  1  0
  1  2  1  0
  2  9  1  0
  1 10  1  0
  8 15  1  0
  8  9  1  0
  9 16  1  0
M  END
$$$$

     RDKit          3D

 18 19  0  0  0  0  0  0  0  0999 V2000
   -0.5879    2.0748   -2.3052 O   0  0  0  0  0  0  0  0  0  0  0  0
   -0.5975    1.3553   -1.3073 C   0  0  0  0  0  0  0  0  0  0  0  0
   -0.8596   -0.1290   -1.3949 C   0  0  0  0  0  0  0  0  0  0  0  0
   -0.3729   -0.9538   -0.2156 C   0  0  0  0  0  0  0  0  0  0  0  0
    1.1295   -1.2235   -0.0067 C   0  0  0  0  0  0  0  0  0  0  0  0
    0.8149   -0.9937    1.4793 C   0  0  0  0  0  0  0  0  0  0  0  0
   -0.3372   -0.2228    1.0434 N   0  0  0  0  0  0  0  0  0  0  0  0
   -0.3015    1.1593    1.0748 C   0  0  0  0  0  0  0  0  0  0  0  0
   -0.4172    1.9707    0.0223 C   0  0  0  0  0  0  0  0  0  0  0  0
   -1.9465   -0.2442   -1.4947 H   0  0  0  0  0  0  0  0  0  0  0  0
   -0.4036   -0.5074   -2.3179 H   0  0  0  0  0  0  0  0  0  0  0  0
   -0.9737   -1.8714   -0.1072 H   0  0  0  0  0  0  0  0  0  0  0  0
    1.8051   -0.4821   -0.4496 H   0  0  0  0  0  0  0  0  0  0  0  0
    1.4739   -2.2271   -0.2680 H   0  0  0  0  0  0  0  0  0  0  0  0
    0.5096   -1.8847    2.0389 H   0  0  0  0  0  0  0  0  0  0  0  0
    1.5569   -0.4283    2.0516 H   0  0  0  0  0  0  0  0  0  0  0  0
   -0.1358    1.5593    2.0727 H   0  0  0  0  0  0  0  0  0  0  0  0
   -0.3567    3.0485    0.0840 H   0  0  0  0  0  0  0  0  0  0  0  0
  4 12  1  0
  5 13  1  0
  4  7  1  0
  4  5  1  0
  3  4  1  0
  3 10  1  0
  7  8  1  0
  6  7  1  0
  6 15  1  0
  1  2  2  0
  2  9  1  0
  2  3  1  0
  5  6  1  0
  5 14  1  0
  8  9  2  0
  9 18  1  0
  8 17  1  0
  3 11  1  0
  6 16  1  0
M  END
$$$$

     RDKit          3D

 17 17  0  0  0  0  0  0  0  0999 V2000
    1.9848    2.5654   -1.2973 O   0  0  0  0  0  0  0  0  0  0  0  0
    1.4036    2.8488   -0.2492 C   0  0  0  0  0  0  0  0  0  0  0  0
   -0.0785    2.7683   -0.0378 C   0  0  0  0  0  0  0  0  0  0  0  0
   -0.3931    1.3385    0.0498 C   0  0  0  0  0  0  0  0  0  0  0  0
   -0.3628    0.1169    0.0399 C   0  0  0  0  0  0  0  0  0  0  0  0
   -0.3761   -1.2487    0.4416 C   0  0  0  0  0  0  0  0  0  0  0  0
    0.6228   -2.2122   -0.1272 C   0  0  0  0  0  0  0  0  0  0  0  0
   -0.4559   -3.2183   -0.1925 O   0  0  0  0  0  0  0  0  0  0  0  0
   -1.4744   -2.1605   -0.0634 C   0  0  0  0  0  0  0  0  0  0  0  0
    1.9999    2.9369    0.7140 H   0  0  0  0  0  0  0  0  0  0  0  0
   -0.3193    3.3634    0.8794 H   0  0  0  0  0  0  0  0  0  0  0  0
   -0.6270    3.2148   -0.8355 H   0  0  0  0  0  0  0  0  0  0  0  0
   -0.3126   -1.3942    1.5500 H   0  0  0  0  0  0  0  0  0  0  0  0
    1.1224   -2.0143   -1.0649 H   0  0  0  0  0  0  0  0  0  0  0  0
    1.3777   -2.5504    0.5976 H   0  0  0  0  0  0  0  0  0  0  0  0
   -2.2203   -2.4617    0.6274 H   0  0  0  0  0  0  0  0  0  0  0  0
   -1.8911   -1.8927   -1.0318 H   0  0  0  0  0  0  0  0  0  0  0  0
  9 17  1  0
  6 13  1  0
  8  9  1  0
  6  9  1  0
  9 16  1  0
  7  8  1  0
  7 14  1  0
  6  7  1  0
  5  6  1  0
  7 15  1  0
  4  5  3  0
  2 10  1  0
  3  4  1  0
  1  2  2  0
  2  3  1  0
  3 12  1  0
  3 11  1  0
M  END
$$$$

     RDKit          3D

 20 21  0  0  0  0  0  0  0  0999 V2000
    0.4537    1.5488    1.1005 C   0  0  0  0  0  0  0  0  0  0  0  0
   -0.0967    0.1800    0.9246 C   0  0  0  0  0  0  0  0  0  0  0  0
   -0.1906   -0.7367    2.0376 N   0  0  0  0  0  0  0  0  0  0  0  0
    0.8426   -0.9990    1.0341 C   0  0  0  0  0  0  0  0  0  0  0  0
    0.7096   -1.1544   -0.4442 C   0  0  0  0  0  0  0  0  0  0  0  0
    1.8023   -0.5605   -1.2126 O   0  0  0  0  0  0  0  0  0  0  0  0
   -0.6336   -0.3230   -0.3840 C   0  0  0  0  0  0  0  0  0  0  0  0
   -0.8610    0.6679   -1.5317 C   0  0  0  0  0  0  0  0  0  0  0  0
   -1.8538   -1.1323   -0.2450 O   0  0  0  0  0  0  0  0  0  0  0  0
   -0.3654    2.2968    1.0747 H   0  0  0  0  0  0  0  0  0  0  0  0
    0.9636    1.6728    2.0679 H   0  0  0  0  0  0  0  0  0  0  0  0
    1.1951    1.7980    0.3251 H   0  0  0  0  0  0  0  0  0  0  0  0
   -0.9104   -1.4452    1.9385 H   0  0  0  0  0  0  0  0  0  0  0  0
    1.8681   -0.8391    1.3389 H   0  0  0  0  0  0  0  0  0  0  0  0
    0.5209   -2.1695   -0.8754 H   0  0  0  0  0  0  0  0  0  0  0  0
    1.6562   -0.8411   -2.1432 H   0  0  0  0  0  0  0  0  0  0  0  0
   -0.8887    1.7064   -1.1658 H   0  0  0  0  0  0  0  0  0  0  0  0
   -1.8216    0.4648   -2.0466 H   0  0  0  0  0  0  0  0  0  0  0  0
   -0.0977    0.5933   -2.3209 H   0  0  0  0  0  0  0  0  0  0  0  0
   -2.2926   -0.7280    0.5277 H   0  0  0  0  0  0  0  0  0  0  0  0
  8 18  1  0
  8 19  1  0
  9 20  1  0
  8 17  1  0
  7  8  1  0
  7  9  1  0
  5  7  1  0
  2  7  1  0
  1 11  1  0
  1 10  1  0
  5 15  1  0
  5  6  1  0
  6 16  1  0
  4  5  1  0
  1  2  1  0
  2  3  1  0
  2  4  1  0
  1 12  1  0
  3  4  1  0
  3 13  1  0
  4 14  1  0
M  END
$$$$

     RDKit          3D

 20 20  0  0  0  0  0  0  0  0999 V2000
   -1.9864   -0.9378    0.6471 C   0  0  0  0  0  0  0  0  0  0  0  0
   -0.7347   -0.4312    0.0889 N   0  0  0  0  0  0  0  0  0  0  0  0
   -0.4885    0.9557    0.4959 C   0  0  0  0  0  0  0  0  0  0  0  0
    0.3201    1.6892   -0.5727 C   0  0  0  0  0  0  0  0  0  0  0  0
    1.0527    0.7597   -1.5323 C   0  0  0  0  0  0  0  0  0  0  0  0
    2.0588   -0.0062   -0.8528 O   0  0  0  0  0  0  0  0  0  0  0  0
    1.8014   -0.9187    0.1042 C   0  0  0  0  0  0  0  0  0  0  0  0
    2.7592   -1.4690    0.6611 O   0  0  0  0  0  0  0  0  0  0  0  0
    0.3795   -1.3223    0.4909 C   0  0  0  0  0  0  0  0  0  0  0  0
   -2.0199   -0.8802    1.7447 H   0  0  0  0  0  0  0  0  0  0  0  0
   -2.8357   -0.3677    0.2427 H   0  0  0  0  0  0  0  0  0  0  0  0
   -2.1448   -1.9789    0.3471 H   0  0  0  0  0  0  0  0  0  0  0  0
   -1.4323    1.5024    0.6224 H   0  0  0  0  0  0  0  0  0  0  0  0
    0.0123    1.0004    1.4669 H   0  0  0  0  0  0  0  0  0  0  0  0
    1.0415    2.3393   -0.0697 H   0  0  0  0  0  0  0  0  0  0  0  0
   -0.3465    2.3391   -1.1565 H   0  0  0  0  0  0  0  0  0  0  0  0
    0.3866    0.0941   -2.0896 H   0  0  0  0  0  0  0  0  0  0  0  0
    1.5744    1.3742   -2.2773 H   0  0  0  0  0  0  0  0  0  0  0  0
    0.2152   -2.3192    0.0546 H   0  0  0  0  0  0  0  0  0  0  0  0
    0.3871   -1.4230    1.5846 H   0  0  0  0  0  0  0  0  0  0  0  0
  4 15  1  0
  3 13  1  0
  3 14  1  0
  3  4  1  0
  4 16  1  0
  4  5  1  0
  2  3  1  0
  5 17  1  0
  5 18  1  0
  5  6  1  0
  1  2  1  0
  2  9  1  0
  1 11  1  0
  9 20  1  0
  6  7  1  0
  1 10  1  0
  1 12  1  0
  7  9  1  0
  9 19  1  0
  7  8  2  0
M  END
$$$$

     RDKit          3D

 20 22  0  0  0  0  0  0  0  0999 V2000
   -0.3065    0.4212   -2.2147 C   0  0  0  0  0  0  0  0  0  0  0  0
   -0.9273    0.2388   -0.7615 C   0  0  0  0  0  0  0  0  0  0  0  0
   -1.1846   -1.1208   -0.7507 O   0  0  0  0  0  0  0  0  0  0  0  0
   -0.0001    0.7730    0.3273 C   0  0  0  0  0  0  0  0  0  0  0  0
    1.0701    1.6919    0.2060 N   0  0  0  0  0  0  0  0  0  0  0  0
    1.3989    0.2334    0.2786 C   0  0  0  0  0  0  0  0  0  0  0  0
    0.8030   -0.9136    1.1823 C   0  0  0  0  0  0  0  0  0  0  0  0
   -0.5489   -1.0657    2.2494 C   0  0  0  0  0  0  0  0  0  0  0  0
    0.1284    0.1900    1.8412 C   0  0  0  0  0  0  0  0  0  0  0  0
   -1.0373    0.3221   -2.9957 H   0  0  0  0  0  0  0  0  0  0  0  0
    0.4698   -0.2998   -2.3950 H   0  0  0  0  0  0  0  0  0  0  0  0
    0.2973    1.3419   -2.3917 H   0  0  0  0  0  0  0  0  0  0  0  0
   -1.8986    0.8849   -0.7877 H   0  0  0  0  0  0  0  0  0  0  0  0
   -0.3972   -1.5547   -1.1049 H   0  0  0  0  0  0  0  0  0  0  0  0
    1.2774    2.0829   -0.7787 H   0  0  0  0  0  0  0  0  0  0  0  0
    1.8873   -0.0617   -0.5891 H   0  0  0  0  0  0  0  0  0  0  0  0
    0.6111   -1.8097    0.4887 H   0  0  0  0  0  0  0  0  0  0  0  0
   -1.7628   -1.0534    2.2582 H   0  0  0  0  0  0  0  0  0  0  0  0
   -0.6803   -0.9174    3.3348 H   0  0  0  0  0  0  0  0  0  0  0  0
    0.8001    0.6168    2.6030 H   0  0  0  0  0  0  0  0  0  0  0  0
  5 15  1  0
  1 11  1  0
  1 12  1  0
  5  6  1  0
  4  5  1  0
  6 16  1  0
  1 10  1  0
  1  2  1  0
  4  6  1  0
  6  7  1  0
  8 19  1  0
  2  4  1  0
  4  9  1  0
  2 13  1  0
  2  3  1  0
  7  8  1  0
  7 17  1  0
  7  9  1  0
  8  9  1  0
  8 18  1  0
  9 20  1  0
  3 14  1  0
M  END
$$$$

     RDKit          3D

 16 15  0  0  0  0  0  0  0  0999 V2000
    1.3701   -1.6526    0.8085 N   0  0  0  0  0  0  0  0  0  0  0  0
    0.3975   -1.9911   -0.2185 C   0  0  0  0  0  0  0  0  0  0  0  0
   -0.9322   -1.7509    0.2244 O   0  0  0  0  0  0  0  0  0  0  0  0
   -1.5640   -0.7773   -0.6112 C   0  0  0  0  0  0  0  0  0  0  0  0
   -1.6457    0.5904    0.0794 C   0  0  0  0  0  0  0  0  0  0  0  0
   -0.3280    1.2574    0.1255 C   0  0  0  0  0  0  0  0  0  0  0  0
    0.7557    1.7842    0.2060 C   0  0  0  0  0  0  0  0  0  0  0  0
    2.0667    2.3781    0.3656 C   0  0  0  0  0  0  0  0  0  0  0  0
    2.6029    3.0042   -0.5465 O   0  0  0  0  0  0  0  0  0  0  0  0
    2.3034   -1.8412    0.4438 H   0  0  0  0  0  0  0  0  0  0  0  0
    0.4701   -3.0483   -0.4678 H   0  0  0  0  0  0  0  0  0  0  0  0
   -1.0688   -0.7248   -1.5975 H   0  0  0  0  0  0  0  0  0  0  0  0
   -2.5888   -1.1328   -0.7848 H   0  0  0  0  0  0  0  0  0  0  0  0
   -2.0328    0.4662    1.0973 H   0  0  0  0  0  0  0  0  0  0  0  0
   -2.3538    1.2300   -0.4702 H   0  0  0  0  0  0  0  0  0  0  0  0
    2.5478    2.2084    1.3458 H   0  0  0  0  0  0  0  0  0  0  0  0
  4 12  1  0
  5 15  1  0
  8 16  1  0
  8  9  2  0
  7  8  1  0
  2 11  1  0
  6  7  3  0
  3  4  1  0
  4  5  1  0
  4 13  1  0
  5  6  1  0
  2  3  1  0
  1  2  1  0
  1 10  1  0
  5 14  1  0
M  END
$$$$

     RDKit          3D

 16 19  0  0  0  0  0  0  0  0999 V2000
    1.6543   -0.9384    1.2597 O   0  0  0  0  0  0  0  0  0  0  0  0
    0.4322   -0.9769    0.3578 C   0  0  0  0  0  0  0  0  0  0  0  0
    1.1916   -0.2293   -0.9007 C   0  0  0  0  0  0  0  0  0  0  0  0
    0.2827    1.0563   -0.7018 C   0  0  0  0  0  0  0  0  0  0  0  0
   -0.0147    1.3959    0.8713 N   0  0  0  0  0  0  0  0  0  0  0  0
   -0.1647    0.0071    1.3917 C   0  0  0  0  0  0  0  0  0  0  0  0
   -1.1986    0.6167    0.6850 C   0  0  0  0  0  0  0  0  0  0  0  0
   -0.7942    0.0209   -0.4892 C   0  0  0  0  0  0  0  0  0  0  0  0
   -1.7622   -0.5490   -1.4436 O   0  0  0  0  0  0  0  0  0  0  0  0
    1.9663   -1.8682    1.2460 H   0  0  0  0  0  0  0  0  0  0  0  0
    1.1070   -0.9962   -1.7179 H   0  0  0  0  0  0  0  0  0  0  0  0
    2.2167    0.0959   -0.7290 H   0  0  0  0  0  0  0  0  0  0  0  0
    0.1911    1.6823   -1.5829 H   0  0  0  0  0  0  0  0  0  0  0  0
   -0.6024   -0.5778    2.1886 H   0  0  0  0  0  0  0  0  0  0  0  0
   -2.1361    1.0504    1.0827 H   0  0  0  0  0  0  0  0  0  0  0  0
   -2.3690    0.2103   -1.5177 H   0  0  0  0  0  0  0  0  0  0  0  0
  3 11  1  0
  3 12  1  0
  3  4  1  0
  2  3  1  0
  4 13  1  0
  9 16  1  0
  8  9  1  0
  4  8  1  0
  4  5  1  0
  2  8  1  0
  7  8  1  0
  1  2  1  0
  1 10  1  0
  2  6  1  0
  5  6  1  0
  5  7  1  0
  6  7  1  0
  6 14  1  0
  7 15  1  0
M  END
$$$$

     RDKit          3D

 17 19  0  0  0  0  0  0  0  0999 V2000
   -0.3414   -1.2342   -2.0409 C   0  0  0  0  0  0  0  0  0  0  0  0
    0.0522   -1.0583   -0.6450 N   0  0  0  0  0  0  0  0  0  0  0  0
   -0.8629   -1.1117    0.5874 C   0  0  0  0  0  0  0  0  0  0  0  0
   -0.3483    0.0377    1.5520 C   0  0  0  0  0  0  0  0  0  0  0  0
   -1.0641    0.3550    0.2429 C   0  0  0  0  0  0  0  0  0  0  0  0
    0.2678    0.4080   -0.3956 C   0  0  0  0  0  0  0  0  0  0  0  0
    0.8787    0.7030    1.0507 C   0  0  0  0  0  0  0  0  0  0  0  0
    1.3455    2.1066    1.0366 C   0  0  0  0  0  0  0  0  0  0  0  0
    1.8541    3.0996    0.8532 N   0  0  0  0  0  0  0  0  0  0  0  0
    0.4128   -1.7249   -2.6713 H   0  0  0  0  0  0  0  0  0  0  0  0
   -0.8210   -0.3226   -2.6473 H   0  0  0  0  0  0  0  0  0  0  0  0
   -1.1293   -1.9828   -1.9975 H   0  0  0  0  0  0  0  0  0  0  0  0
   -0.3631   -1.9129    1.1842 H   0  0  0  0  0  0  0  0  0  0  0  0
   -0.9619    0.2559    2.5255 H   0  0  0  0  0  0  0  0  0  0  0  0
   -1.6662    1.1830    0.4378 H   0  0  0  0  0  0  0  0  0  0  0  0
    1.1686    0.9936   -0.8984 H   0  0  0  0  0  0  0  0  0  0  0  0
    1.5784    0.2051    1.8258 H   0  0  0  0  0  0  0  0  0  0  0  0
  3 13  1  0
  4 14  1  0
  3  4  1  0
  3  5  1  0
  2  3  1  0
  4  5  1  0
  4  7  1  0
  1 11  1  0
  5 15  1  0
  5  6  1  0
  1 10  1  0
  1  2  1  0
  2  6  1  0
  1 12  1  0
  7 17  1  0
  6  7  1  0
  7  8  1  0
  6 16  1  0
  8  9  3  0
M  END
$$$$

     RDKit          3D

 13 14  0  0  0  0  0  0  0  0999 V2000
    0.7229    1.5403    1.7964 O   0  0  0  0  0  0  0  0  0  0  0  0
    0.6224    0.8125    0.8208 C   0  0  0  0  0  0  0  0  0  0  0  0
    1.3986   -0.3788    0.5228 C   0  0  0  0  0  0  0  0  0  0  0  0
    0.7099   -1.5784   -0.0200 C   0  0  0  0  0  0  0  0  0  0  0  0
    0.8116   -0.3966   -0.8601 N   0  0  0  0  0  0  0  0  0  0  0  0
   -0.0764    0.7472   -0.5433 C   0  0  0  0  0  0  0  0  0  0  0  0
   -1.4974    0.5045   -0.5425 C   0  0  0  0  0  0  0  0  0  0  0  0
   -2.6922    0.6581   -0.4381 C   0  0  0  0  0  0  0  0  0  0  0  0
    2.4792   -0.3226    0.5837 H   0  0  0  0  0  0  0  0  0  0  0  0
    1.3135   -2.4442   -0.2767 H   0  0  0  0  0  0  0  0  0  0  0  0
   -0.2512   -1.8501    0.4279 H   0  0  0  0  0  0  0  0  0  0  0  0
    0.1627    1.6374   -1.1296 H   0  0  0  0  0  0  0  0  0  0  0  0
   -3.7037    1.0708   -0.3412 H   0  0  0  0  0  0  0  0  0  0  0  0
  6 12  1  0
  3  9  1  0
  3  5  1  0
  5  6  1  0
  4  5  1  0
  2  3  1  0
  3  4  1  0
  1  2  2  0
  2  6  1  0
  6  7  1  0
  4 10  1  0
  4 11  1  0
  7  8  3  0
  8 13  1  0
M  END
$$$$

     RDKit          3D

 18 19  0  0  0  0  0  0  0  0999 V2000
   -0.2993    2.3441   -1.6316 C   0  0  0  0  0  0  0  0  0  0  0  0
   -0.2432    1.1640   -0.7898 N   0  0  0  0  0  0  0  0  0  0  0  0
   -0.1479   -0.1276   -1.2742 C   0  0  0  0  0  0  0  0  0  0  0  0
   -0.0763   -0.9554   -0.1962 C   0  0  0  0  0  0  0  0  0  0  0  0
    0.0740   -2.3595    0.1862 C   0  0  0  0  0  0  0  0  0  0  0  0
    0.7406   -2.2924    1.4943 O   0  0  0  0  0  0  0  0  0  0  0  0
    0.4676   -0.9517    2.0827 C   0  0  0  0  0  0  0  0  0  0  0  0
   -0.0370   -0.1420    0.9576 C   0  0  0  0  0  0  0  0  0  0  0  0
   -0.2716    1.1696    0.5918 C   0  0  0  0  0  0  0  0  0  0  0  0
   -1.2500    2.8658   -1.4844 H   0  0  0  0  0  0  0  0  0  0  0  0
    0.5282    2.9988   -1.3100 H   0  0  0  0  0  0  0  0  0  0  0  0
   -0.2038    2.0463   -2.6799 H   0  0  0  0  0  0  0  0  0  0  0  0
   -0.1104   -0.3606   -2.3420 H   0  0  0  0  0  0  0  0  0  0  0  0
    0.6960   -2.9826   -0.5025 H   0  0  0  0  0  0  0  0  0  0  0  0
   -0.9184   -2.8394    0.2845 H   0  0  0  0  0  0  0  0  0  0  0  0
   -0.1934   -1.1789    2.9389 H   0  0  0  0  0  0  0  0  0  0  0  0
    1.3684   -0.4634    2.5290 H   0  0  0  0  0  0  0  0  0  0  0  0
   -0.1236    2.0650    1.1455 H   0  0  0  0  0  0  0  0  0  0  0  0
  3 13  1  0
  5 15  1  0
  5 14  1  0
  4  5  1  0
  5  6  1  0
  3  4  2  0
  2  3  1  0
  1 11  1  0
  4  8  1  0
  6  7  1  0
  1  2  1  0
  2  9  1  0
  1 10  1  0
  1 12  1  0
  8  9  2  0
  7  8  1  0
  9 18  1  0
  7 16  1  0
  7 17  1  0
M  END
$$$$

     RDKit          3D

 18 20  0  0  0  0  0  0  0  0999 V2000
   -1.1055   -1.7157    1.8608 O   0  0  0  0  0  0  0  0  0  0  0  0
   -0.7506   -1.4514    0.7309 C   0  0  0  0  0  0  0  0  0  0  0  0
   -0.6716   -2.2062   -0.6171 C   0  0  0  0  0  0  0  0  0  0  0  0
   -0.5141   -0.8614   -1.2500 N   0  0  0  0  0  0  0  0  0  0  0  0
   -0.1924   -0.2388    0.0417 C   0  0  0  0  0  0  0  0  0  0  0  0
   -0.5191    1.2473    0.1892 C   0  0  0  0  0  0  0  0  0  0  0  0
    0.5981    1.2056    1.3136 C   0  0  0  0  0  0  0  0  0  0  0  0
    1.2230    0.3480    0.1332 C   0  0  0  0  0  0  0  0  0  0  0  0
    0.7030    1.5301   -0.7728 C   0  0  0  0  0  0  0  0  0  0  0  0
    0.2204   -2.8451   -0.7080 H   0  0  0  0  0  0  0  0  0  0  0  0
   -1.5735   -2.7541   -0.9115 H   0  0  0  0  0  0  0  0  0  0  0  0
   -1.3888   -0.5122   -1.6537 H   0  0  0  0  0  0  0  0  0  0  0  0
   -1.4668    1.7615    0.2351 H   0  0  0  0  0  0  0  0  0  0  0  0
    1.1106    2.1444    1.5581 H   0  0  0  0  0  0  0  0  0  0  0  0
    0.3646    0.6831    2.2453 H   0  0  0  0  0  0  0  0  0  0  0  0
    2.1764   -0.1569    0.1065 H   0  0  0  0  0  0  0  0  0  0  0  0
    1.2230    2.4939   -0.6619 H   0  0  0  0  0  0  0  0  0  0  0  0
    0.5632    1.3280   -1.8395 H   0  0  0  0  0  0  0  0  0  0  0  0
  8 16  1  0
  7  8  1  0
  8  9  1  0
  5  8  1  0
  7 14  1  0
  7 15  1  0
  6  7  1  0
  3 10  1  0
  9 18  1  0
  1  2  2  0
  9 17  1  0
  6  9  1  0
  4 12  1  0
  2  5  1  0
  2  3  1  0
  4  5  1  0
  5  6  1  0
  3  4  1  0
  3 11  1  0
  6 13  1  0
M  END
$$$$

     RDKit          3D

 17 17  0  0  0  0  0  0  0  0999 V2000
    0.8602   -1.6357   -1.2479 C   0  0  0  0  0  0  0  0  0  0  0  0
   -0.3308   -0.7368   -1.4603 C   0  0  0  0  0  0  0  0  0  0  0  0
   -1.0399   -0.8883   -2.4578 O   0  0  0  0  0  0  0  0  0  0  0  0
   -0.6304    0.3027   -0.4783 C   0  0  0  0  0  0  0  0  0  0  0  0
   -1.6150    1.2528   -0.6827 C   0  0  0  0  0  0  0  0  0  0  0  0
   -1.6952    2.1110    0.3611 O   0  0  0  0  0  0  0  0  0  0  0  0
   -0.7667    1.7162    1.2621 C   0  0  0  0  0  0  0  0  0  0  0  0
   -0.0752    0.6063    0.8138 C   0  0  0  0  0  0  0  0  0  0  0  0
    1.0029   -0.0866    1.5625 C   0  0  0  0  0  0  0  0  0  0  0  0
    0.9866   -2.2845   -2.1208 H   0  0  0  0  0  0  0  0  0  0  0  0
    1.7691   -1.0388   -1.1377 H   0  0  0  0  0  0  0  0  0  0  0  0
    0.7021   -2.2686   -0.3716 H   0  0  0  0  0  0  0  0  0  0  0  0
   -2.3072    1.4368   -1.4954 H   0  0  0  0  0  0  0  0  0  0  0  0
   -0.7141    2.3132    2.1637 H   0  0  0  0  0  0  0  0  0  0  0  0
    0.7553   -1.1420    1.7088 H   0  0  0  0  0  0  0  0  0  0  0  0
    1.9552   -0.0164    1.0274 H   0  0  0  0  0  0  0  0  0  0  0  0
    1.1433    0.3586    2.5531 H   0  0  0  0  0  0  0  0  0  0  0  0
  1 11  1  0
  9 15  1  0
  1 10  1  0
  2  3  2  0
  1  2  1  0
  1 12  1  0
  2  4  1  0
  8  9  1  0
  9 17  1  0
  9 16  1  0
  4  8  1  0
  4  5  2  0
  7  8  2  0
  5 13  1  0
  5  6  1  0
  6  7  1  0
  7 14  1  0
M  END
$$$$

     RDKit          3D

 19 21  0  0  0  0  0  0  0  0999 V2000
   -3.0087   -0.3691    0.4874 O   0  0  0  0  0  0  0  0  0  0  0  0
   -2.0836    0.4023    0.7323 C   0  0  0  0  0  0  0  0  0  0  0  0
   -0.6915   -0.1186    0.8575 C   0  0  0  0  0  0  0  0  0  0  0  0
    0.0274    0.2054    2.1592 C   0  0  0  0  0  0  0  0  0  0  0  0
    0.5466    0.7348    0.8584 C   0  0  0  0  0  0  0  0  0  0  0  0
    1.2367   -0.1800   -0.0854 C   0  0  0  0  0  0  0  0  0  0  0  0
    1.3625   -0.0484   -1.6044 C   0  0  0  0  0  0  0  0  0  0  0  0
   -0.1449   -0.2748   -1.7256 C   0  0  0  0  0  0  0  0  0  0  0  0
   -0.1146   -0.8912   -0.2984 C   0  0  0  0  0  0  0  0  0  0  0  0
   -2.2425    1.4736    0.8964 H   0  0  0  0  0  0  0  0  0  0  0  0
    0.6082   -0.5710    2.6544 H   0  0  0  0  0  0  0  0  0  0  0  0
   -0.4280    0.9149    2.8436 H   0  0  0  0  0  0  0  0  0  0  0  0
    0.4490    1.7549    0.5158 H   0  0  0  0  0  0  0  0  0  0  0  0
    2.0361   -0.7732    0.3708 H   0  0  0  0  0  0  0  0  0  0  0  0
    1.9406   -0.8806   -2.0345 H   0  0  0  0  0  0  0  0  0  0  0  0
    1.7546    0.8832   -2.0166 H   0  0  0  0  0  0  0  0  0  0  0  0
   -0.4522   -0.9490   -2.5362 H   0  0  0  0  0  0  0  0  0  0  0  0
   -0.7018    0.6716   -1.8306 H   0  0  0  0  0  0  0  0  0  0  0  0
   -0.0940   -1.9849   -0.2441 H   0  0  0  0  0  0  0  0  0  0  0  0
  6 14  1  0
  5 13  1  0
  5  6  1  0
  6  7  1  0
  6  9  1  0
  3  5  1  0
  4  5  1  0
  7 15  1  0
  9 19  1  0
  2 10  1  0
  2  3  1  0
  1  2  2  0
  7 16  1  0
  7  8  1  0
  3  9  1  0
  8  9  1  0
  3  4  1  0
  4 11  1  0
  4 12  1  0
  8 17  1  0
  8 18  1  0
M  END
$$$$

     RDKit          3D

 14 14  0  0  0  0  0  0  0  0999 V2000
   -1.1343    0.8778    1.7280 C   0  0  0  0  0  0  0  0  0  0  0  0
   -1.2211    0.0796    0.5535 O   0  0  0  0  0  0  0  0  0  0  0  0
   -0.0414   -0.0687   -0.0896 C   0  0  0  0  0  0  0  0  0  0  0  0
    0.0684   -0.8072   -1.2414 C   0  0  0  0  0  0  0  0  0  0  0  0
   -0.8159   -1.4909   -1.9569 O   0  0  0  0  0  0  0  0  0  0  0  0
    1.3844   -0.7359   -1.6021 N   0  0  0  0  0  0  0  0  0  0  0  0
    2.1389    0.0013   -0.7600 N   0  0  0  0  0  0  0  0  0  0  0  0
    1.2612    0.4079    0.1649 C   0  0  0  0  0  0  0  0  0  0  0  0
   -0.8134    1.8976    1.4891 H   0  0  0  0  0  0  0  0  0  0  0  0
   -2.1334    0.9349    2.1702 H   0  0  0  0  0  0  0  0  0  0  0  0
   -0.4653    0.4223    2.4662 H   0  0  0  0  0  0  0  0  0  0  0  0
   -1.6674   -1.3816   -1.4898 H   0  0  0  0  0  0  0  0  0  0  0  0
    1.8229   -1.1668   -2.4074 H   0  0  0  0  0  0  0  0  0  0  0  0
    1.6163    1.0297    0.9753 H   0  0  0  0  0  0  0  0  0  0  0  0
  1 10  1  0
  5 12  1  0
  1  2  1  0
  2  3  1  0
  1  9  1  0
  1 11  1  0
  4  5  1  0
  3  4  2  0
  3  8  1  0
  4  6  1  0
  8 14  1  0
  7  8  2  0
  6 13  1  0
  6  7  1  0
M  END
$$$$

     RDKit          3D

 20 20  0  0  0  0  0  0  0  0999 V2000
   -0.1610   -0.2542    2.3169 C   0  0  0  0  0  0  0  0  0  0  0  0
    0.3605   -1.0290    1.1125 C   0  0  0  0  0  0  0  0  0  0  0  0
   -0.2025   -0.4818   -0.2123 C   0  0  0  0  0  0  0  0  0  0  0  0
    0.4222   -1.2007   -1.3745 N   0  0  0  0  0  0  0  0  0  0  0  0
    0.6265    0.0872   -2.0689 C   0  0  0  0  0  0  0  0  0  0  0  0
    0.5012    0.8229   -0.7142 C   0  0  0  0  0  0  0  0  0  0  0  0
   -0.3586    2.0071   -0.8679 N   0  0  0  0  0  0  0  0  0  0  0  0
   -1.6643   -0.5477   -0.2758 C   0  0  0  0  0  0  0  0  0  0  0  0
   -2.8290   -0.5644   -0.2996 N   0  0  0  0  0  0  0  0  0  0  0  0
    0.4088   -0.5345    3.2114 H   0  0  0  0  0  0  0  0  0  0  0  0
   -0.0836    0.8332    2.1683 H   0  0  0  0  0  0  0  0  0  0  0  0
   -1.2173   -0.4962    2.5096 H   0  0  0  0  0  0  0  0  0  0  0  0
    1.4546   -0.9630    1.1120 H   0  0  0  0  0  0  0  0  0  0  0  0
    0.1238   -2.0932    1.2250 H   0  0  0  0  0  0  0  0  0  0  0  0
    1.2927   -1.6718   -1.1381 H   0  0  0  0  0  0  0  0  0  0  0  0
    1.6002    0.1727   -2.5624 H   0  0  0  0  0  0  0  0  0  0  0  0
   -0.1566    0.2976   -2.8071 H   0  0  0  0  0  0  0  0  0  0  0  0
    1.4786    1.0447   -0.2634 H   0  0  0  0  0  0  0  0  0  0  0  0
   -1.3771    1.8393   -0.9305 H   0  0  0  0  0  0  0  0  0  0  0  0
   -0.2191    2.7317   -0.1409 H   0  0  0  0  0  0  0  0  0  0  0  0
  8  9  3  0
  3  8  1  0
  5 16  1  0
  6 18  1  0
  5  6  1  0
  3  6  1  0
  6  7  1  0
  4  5  1  0
  5 17  1  0
  3  4  1  0
  2  3  1  0
  4 15  1  0
  1 11  1  0
  2 14  1  0
  7 19  1  0
  1  2  1  0
  2 13  1  0
  7 20  1  0
  1 10  1  0
  1 12  1  0
M  END
$$$$

     RDKit          3D

 19 20  0  0  0  0  0  0  0  0999 V2000
   -2.5343    0.5193   -0.4754 C   0  0  0  0  0  0  0  0  0  0  0  0
   -1.2201    0.1711    0.0898 C   0  0  0  0  0  0  0  0  0  0  0  0
   -0.5635    0.9886    0.9198 C   0  0  0  0  0  0  0  0  0  0  0  0
    0.8966    0.6638    0.8731 C   0  0  0  0  0  0  0  0  0  0  0  0
    1.2687    0.3241    2.2052 O   0  0  0  0  0  0  0  0  0  0  0  0
    1.0227   -0.4821   -0.0676 C   0  0  0  0  0  0  0  0  0  0  0  0
    2.2061   -0.6337   -0.9684 C   0  0  0  0  0  0  0  0  0  0  0  0
    2.0286   -1.4679    0.2231 O   0  0  0  0  0  0  0  0  0  0  0  0
   -0.3614   -0.9117   -0.4401 C   0  0  0  0  0  0  0  0  0  0  0  0
   -2.9812    1.3924   -0.0473 H   0  0  0  0  0  0  0  0  0  0  0  0
   -3.2698   -0.3196   -0.4783 H   0  0  0  0  0  0  0  0  0  0  0  0
   -2.3179    0.8330   -1.5447 H   0  0  0  0  0  0  0  0  0  0  0  0
   -1.0086    1.8739    1.3865 H   0  0  0  0  0  0  0  0  0  0  0  0
    1.4100    1.5939    0.5408 H   0  0  0  0  0  0  0  0  0  0  0  0
    1.4721   -0.6506    2.2109 H   0  0  0  0  0  0  0  0  0  0  0  0
    2.9529    0.1553   -0.9933 H   0  0  0  0  0  0  0  0  0  0  0  0
    2.1457   -1.1371   -1.9184 H   0  0  0  0  0  0  0  0  0  0  0  0
   -0.6201   -1.8523    0.0440 H   0  0  0  0  0  0  0  0  0  0  0  0
   -0.5266   -1.0605   -1.5598 H   0  0  0  0  0  0  0  0  0  0  0  0
  3 13  1  0
  5 15  1  0
  4  5  1  0
  3  4  1  0
  2  3  2  0
  1 11  1  0
  4 14  1  0
  4  6  1  0
  1  2  1  0
  2  9  1  0
  1 10  1  0
  1 12  1  0
  6  8  1  0
  6  9  1  0
  6  7  1  0
  7  8  1  0
  7 17  1  0
  9 19  1  0
  9 18  1  0
  7 16  1  0
M  END
$$$$

     RDKit          3D

 21 22  0  0  0  0  0  0  0  0999 V2000
    1.5358    2.0650   -0.7407 C   0  0  0  0  0  0  0  0  0  0  0  0
    1.0960    0.7226   -1.3174 C   0  0  0  0  0  0  0  0  0  0  0  0
    0.0866   -0.0406   -0.4850 C   0  0  0  0  0  0  0  0  0  0  0  0
    0.3095   -0.1300    1.0134 C   0  0  0  0  0  0  0  0  0  0  0  0
   -0.9149   -0.9999    1.1720 C   0  0  0  0  0  0  0  0  0  0  0  0
   -0.5478   -2.1219    0.2027 C   0  0  0  0  0  0  0  0  0  0  0  0
    0.0422   -1.4251   -0.9186 O   0  0  0  0  0  0  0  0  0  0  0  0
   -1.9600   -0.1326    0.4960 C   0  0  0  0  0  0  0  0  0  0  0  0
   -1.2409    0.4919   -0.5788 O   0  0  0  0  0  0  0  0  0  0  0  0
    0.7021    2.7955   -0.7398 H   0  0  0  0  0  0  0  0  0  0  0  0
    2.3614    2.4712   -1.3459 H   0  0  0  0  0  0  0  0  0  0  0  0
    1.9090    1.9536    0.2835 H   0  0  0  0  0  0  0  0  0  0  0  0
    1.9859    0.1073   -1.4640 H   0  0  0  0  0  0  0  0  0  0  0  0
    0.6755    0.9024   -2.3202 H   0  0  0  0  0  0  0  0  0  0  0  0
    1.2560   -0.6075    1.2913 H   0  0  0  0  0  0  0  0  0  0  0  0
    0.2122    0.8163    1.5499 H   0  0  0  0  0  0  0  0  0  0  0  0
   -1.1775   -1.3420    2.1857 H   0  0  0  0  0  0  0  0  0  0  0  0
    0.2120   -2.7871    0.6177 H   0  0  0  0  0  0  0  0  0  0  0  0
   -1.4030   -2.7021   -0.1480 H   0  0  0  0  0  0  0  0  0  0  0  0
   -2.7998   -0.7026    0.0953 H   0  0  0  0  0  0  0  0  0  0  0  0
   -2.3403    0.6656    1.1508 H   0  0  0  0  0  0  0  0  0  0  0  0
  6 18  1  0
  6 19  1  0
  5  6  1  0
  6  7  1  0
  5 17  1  0
  8 21  1  0
  5  8  1  0
  4  5  1  0
  3  7  1  0
  8 20  1  0
  8  9  1  0
  4 16  1  0
  3  4  1  0
  4 15  1  0
  3  9  1  0
  2  3  1  0
  1 11  1  0
  1  2  1  0
  2 14  1  0
  2 13  1  0
  1 10  1  0
  1 12  1  0
M  END
$$$$

     RDKit          3D

 23 23  0  0  0  0  0  0  0  0999 V2000
    1.3851   -0.2581   -2.2560 C   0  0  0  0  0  0  0  0  0  0  0  0
    1.5515    0.2050   -0.8490 C   0  0  0  0  0  0  0  0  0  0  0  0
    0.2528    0.7927   -0.2852 C   0  0  0  0  0  0  0  0  0  0  0  0
    0.7142    1.7749    0.6368 O   0  0  0  0  0  0  0  0  0  0  0  0
    0.4810    1.2920    1.9542 C   0  0  0  0  0  0  0  0  0  0  0  0
    0.1573   -0.1938    1.8693 C   0  0  0  0  0  0  0  0  0  0  0  0
   -0.6184   -0.1247    0.5708 C   0  0  0  0  0  0  0  0  0  0  0  0
   -0.9665   -1.4894    0.0093 O   0  0  0  0  0  0  0  0  0  0  0  0
   -2.4022   -1.3597   -0.3894 C   0  0  0  0  0  0  0  0  0  0  0  0
    0.3315   -0.7070   -2.4001 H   0  0  0  0  0  0  0  0  0  0  0  0
    2.1860   -0.9240   -2.5786 H   0  0  0  0  0  0  0  0  0  0  0  0
    1.3643    0.6035   -2.9315 H   0  0  0  0  0  0  0  0  0  0  0  0
    2.2118    1.0829   -0.8500 H   0  0  0  0  0  0  0  0  0  0  0  0
    2.0390   -0.5809   -0.2055 H   0  0  0  0  0  0  0  0  0  0  0  0
   -0.4359    1.3289   -0.9744 H   0  0  0  0  0  0  0  0  0  0  0  0
    1.3862    1.5433    2.5476 H   0  0  0  0  0  0  0  0  0  0  0  0
   -0.4440    1.8112    2.3502 H   0  0  0  0  0  0  0  0  0  0  0  0
   -0.4780   -0.6148    2.6428 H   0  0  0  0  0  0  0  0  0  0  0  0
    1.0930   -0.6876    1.8977 H   0  0  0  0  0  0  0  0  0  0  0  0
   -1.5638    0.5267    0.6890 H   0  0  0  0  0  0  0  0  0  0  0  0
   -2.4549   -0.8283   -1.3811 H   0  0  0  0  0  0  0  0  0  0  0  0
   -2.7711   -2.3668   -0.5081 H   0  0  0  0  0  0  0  0  0  0  0  0
   -3.0190   -0.8259    0.4411 H   0  0  0  0  0  0  0  0  0  0  0  0
  2 14  1  0
  1 11  1  0
  9 21  1  0
  9 22  1  0
  2 13  1  0
  1  2  1  0
  2  3  1  0
  8  9  1  0
  9 23  1  0
  1 10  1  0
  1 12  1  0
  7  8  1  0
  7 20  1  0
  3  7  1  0
  6  7  1  0
  3 15  1  0
  3  4  1  0
  4  5  1  0
  6 19  1  0
  6 18  1  0
  5  6  1  0
  5 16  1  0
  5 17  1  0
M  END
$$$$

     RDKit          3D

 21 20  0  0  0  0  0  0  0  0999 V2000
   -3.7508    0.4510   -0.3096 C   0  0  0  0  0  0  0  0  0  0  0  0
   -2.3551    0.8750   -0.4131 C   0  0  0  0  0  0  0  0  0  0  0  0
   -1.2123    1.2248   -0.5223 C   0  0  0  0  0  0  0  0  0  0  0  0
    0.1818    1.6509   -0.7104 C   0  0  0  0  0  0  0  0  0  0  0  0
    1.0619    1.3290    0.4988 C   0  0  0  0  0  0  0  0  0  0  0  0
    1.1967   -0.1562    0.8616 C   0  0  0  0  0  0  0  0  0  0  0  0
    1.5529   -1.0605   -0.3209 C   0  0  0  0  0  0  0  0  0  0  0  0
    1.9635   -2.3942    0.1419 C   0  0  0  0  0  0  0  0  0  0  0  0
    2.2997   -3.4828    0.5210 C   0  0  0  0  0  0  0  0  0  0  0  0
   -4.2987    1.0952    0.3853 H   0  0  0  0  0  0  0  0  0  0  0  0
   -4.2478    0.5056   -1.2839 H   0  0  0  0  0  0  0  0  0  0  0  0
   -3.8254   -0.5802    0.0524 H   0  0  0  0  0  0  0  0  0  0  0  0
    0.2011    2.7349   -0.8767 H   0  0  0  0  0  0  0  0  0  0  0  0
    0.6012    1.1926   -1.6123 H   0  0  0  0  0  0  0  0  0  0  0  0
    0.6825    1.8644    1.3780 H   0  0  0  0  0  0  0  0  0  0  0  0
    2.0660    1.7332    0.3049 H   0  0  0  0  0  0  0  0  0  0  0  0
    1.9747   -0.2417    1.6344 H   0  0  0  0  0  0  0  0  0  0  0  0
    0.2675   -0.5141    1.3240 H   0  0  0  0  0  0  0  0  0  0  0  0
    0.6811   -1.1635   -0.9876 H   0  0  0  0  0  0  0  0  0  0  0  0
    2.3676   -0.6073   -0.9104 H   0  0  0  0  0  0  0  0  0  0  0  0
    2.5919   -4.4564    0.8451 H   0  0  0  0  0  0  0  0  0  0  0  0
  4 13  1  0
  6 17  1  0
  5 16  1  0
  7 20  1  0
  1 11  1  0
  9 21  1  0
  8  9  3  0
  3  4  1  0
  4  5  1  0
  4 14  1  0
  5  6  1  0
  6  7  1  0
  6 18  1  0
  7  8  1  0
  2  3  3  0
  5 15  1  0
  7 19  1  0
  1  2  1  0
  1 10  1  0
  1 12  1  0
M  END
$$$$

     RDKit          3D

 22 23  0  0  0  0  0  0  0  0999 V2000
    0.3954    1.5483   -0.9611 C   0  0  0  0  0  0  0  0  0  0  0  0
   -0.4640    0.4895   -0.2636 C   0  0  0  0  0  0  0  0  0  0  0  0
   -0.2693   -0.8806   -0.9275 C   0  0  0  0  0  0  0  0  0  0  0  0
   -0.5919   -1.1580   -2.3476 C   0  0  0  0  0  0  0  0  0  0  0  0
    0.2072   -1.7562   -0.0216 C   0  0  0  0  0  0  0  0  0  0  0  0
    0.3664   -1.1951    1.3217 C   0  0  0  0  0  0  0  0  0  0  0  0
   -0.8276   -0.7413    2.0106 N   0  0  0  0  0  0  0  0  0  0  0  0
   -0.0699    0.2503    1.2155 C   0  0  0  0  0  0  0  0  0  0  0  0
    0.6051    1.3279    2.0082 C   0  0  0  0  0  0  0  0  0  0  0  0
    0.3593    2.5079   -0.4279 H   0  0  0  0  0  0  0  0  0  0  0  0
    1.4519    1.2429   -0.9993 H   0  0  0  0  0  0  0  0  0  0  0  0
    0.0535    1.7255   -1.9920 H   0  0  0  0  0  0  0  0  0  0  0  0
   -1.5251    0.7927   -0.3027 H   0  0  0  0  0  0  0  0  0  0  0  0
   -0.3542   -2.1920   -2.6116 H   0  0  0  0  0  0  0  0  0  0  0  0
   -0.0279   -0.4999   -3.0175 H   0  0  0  0  0  0  0  0  0  0  0  0
   -1.6535   -0.9977   -2.5293 H   0  0  0  0  0  0  0  0  0  0  0  0
    0.4408   -2.7884   -0.2349 H   0  0  0  0  0  0  0  0  0  0  0  0
    1.2224   -1.4602    1.9190 H   0  0  0  0  0  0  0  0  0  0  0  0
   -1.6633   -1.0542    1.5098 H   0  0  0  0  0  0  0  0  0  0  0  0
   -0.0818    2.1695    2.1557 H   0  0  0  0  0  0  0  0  0  0  0  0
    1.5059    1.7084    1.5056 H   0  0  0  0  0  0  0  0  0  0  0  0
    0.9205    0.9610    2.9904 H   0  0  0  0  0  0  0  0  0  0  0  0
  4 15  1  0
  4 16  1  0
  4 14  1  0
  3  4  1  0
  5 17  1  0
  3  5  2  0
  2  3  1  0
  1 11  1  0
  5  6  1  0
  2 13  1  0
  1  2  1  0
  2  8  1  0
  1 10  1  0
  1 12  1  0
  6 18  1  0
  6  8  1  0
  6  7  1  0
  7  8  1  0
  8  9  1  0
  7 19  1  0
  9 21  1  0
  9 20  1  0
  9 22  1  0
M  END
$$$$

     RDKit          3D

 19 20  0  0  0  0  0  0  0  0999 V2000
   -0.4644    1.6337   -0.3868 O   0  0  0  0  0  0  0  0  0  0  0  0
   -0.4739    0.7490    0.7064 C   0  0  0  0  0  0  0  0  0  0  0  0
   -1.6208    0.9806    1.6487 C   0  0  0  0  0  0  0  0  0  0  0  0
   -1.5458   -0.2032    0.7474 C   0  0  0  0  0  0  0  0  0  0  0  0
   -0.4918   -1.2503    1.0182 C   0  0  0  0  0  0  0  0  0  0  0  0
    0.5151   -0.3172    0.4244 C   0  0  0  0  0  0  0  0  0  0  0  0
    0.7606   -0.8031   -1.0474 C   0  0  0  0  0  0  0  0  0  0  0  0
    1.7596   -0.0376   -1.8873 C   0  0  0  0  0  0  0  0  0  0  0  0
    2.7046    0.3760   -2.4885 C   0  0  0  0  0  0  0  0  0  0  0  0
   -0.5258    2.6130   -0.1507 H   0  0  0  0  0  0  0  0  0  0  0  0
   -1.7238    0.9348    2.7878 H   0  0  0  0  0  0  0  0  0  0  0  0
   -2.2610    1.8843    1.4028 H   0  0  0  0  0  0  0  0  0  0  0  0
   -2.2186   -0.5078   -0.1383 H   0  0  0  0  0  0  0  0  0  0  0  0
    0.0003   -1.7961    1.9117 H   0  0  0  0  0  0  0  0  0  0  0  0
   -0.7983   -2.1262    0.4905 H   0  0  0  0  0  0  0  0  0  0  0  0
    1.5312   -0.0950    1.0372 H   0  0  0  0  0  0  0  0  0  0  0  0
   -0.1154   -0.9601   -1.7560 H   0  0  0  0  0  0  0  0  0  0  0  0
    1.4652   -1.6438   -1.1026 H   0  0  0  0  0  0  0  0  0  0  0  0
    3.5030    0.5689   -3.2176 H   0  0  0  0  0  0  0  0  0  0  0  0
  3 11  1  0
  3 12  1  0
  2  3  1  0
  3  4  1  0
  1 10  1  0
  7 17  1  0
  1  2  1  0
  2  4  1  0
  2  6  1  0
  4 13  1  0
  4  5  1  0
  7 18  1  0
  5 15  1  0
  6  7  1  0
  7  8  1  0
  5  6  1  0
  6 16  1  0
  5 14  1  0
  8  9  3  0
  9 19  1  0
M  END
$$$$

     RDKit          3D

 17 16  0  0  0  0  0  0  0  0999 V2000
   -0.0316    2.0570   -1.4440 C   0  0  0  0  0  0  0  0  0  0  0  0
   -0.4738    0.8223   -0.9011 O   0  0  0  0  0  0  0  0  0  0  0  0
   -0.0841    0.6662    0.4639 C   0  0  0  0  0  0  0  0  0  0  0  0
   -0.3889   -0.7698    0.9409 C   0  0  0  0  0  0  0  0  0  0  0  0
   -1.8055   -0.9899    0.9883 O   0  0  0  0  0  0  0  0  0  0  0  0
    0.2098   -1.8505    0.0367 C   0  0  0  0  0  0  0  0  0  0  0  0
    1.6796   -1.8135    0.0521 C   0  0  0  0  0  0  0  0  0  0  0  0
    2.8393   -1.7622    0.1060 N   0  0  0  0  0  0  0  0  0  0  0  0
   -0.4613    2.1607   -2.4465 H   0  0  0  0  0  0  0  0  0  0  0  0
    1.0635    2.0617   -1.5287 H   0  0  0  0  0  0  0  0  0  0  0  0
   -0.3755    2.9013   -0.8251 H   0  0  0  0  0  0  0  0  0  0  0  0
   -0.6537    1.3895    1.0639 H   0  0  0  0  0  0  0  0  0  0  0  0
    0.9818    0.8773    0.5844 H   0  0  0  0  0  0  0  0  0  0  0  0
   -0.0141   -0.8777    1.9664 H   0  0  0  0  0  0  0  0  0  0  0  0
   -2.1998   -0.2901    1.5490 H   0  0  0  0  0  0  0  0  0  0  0  0
   -0.1618   -1.7464   -0.9845 H   0  0  0  0  0  0  0  0  0  0  0  0
   -0.1239   -2.8359    0.3783 H   0  0  0  0  0  0  0  0  0  0  0  0
  1 10  1  0
  5 15  1  0
  4  5  1  0
  1  2  1  0
  1  9  1  0
  1 11  1  0
  2  3  1  0
  4 14  1  0
  3  4  1  0
  4  6  1  0
  3 12  1  0
  3 13  1  0
  7  8  3  0
  6  7  1  0
  6 16  1  0
  6 17  1  0
M  END
$$$$

     RDKit          3D

 20 21  0  0  0  0  0  0  0  0999 V2000
    1.9552   -1.0042    0.6261 C   0  0  0  0  0  0  0  0  0  0  0  0
    1.5890   -0.2358   -0.6596 C   0  0  0  0  0  0  0  0  0  0  0  0
    0.1688   -0.0177   -0.0797 C   0  0  0  0  0  0  0  0  0  0  0  0
    0.4458   -1.2215    0.8648 C   0  0  0  0  0  0  0  0  0  0  0  0
   -1.0121   -0.1605   -1.0432 C   0  0  0  0  0  0  0  0  0  0  0  0
   -2.1035    0.7207   -0.4284 C   0  0  0  0  0  0  0  0  0  0  0  0
   -1.3303    1.6730    0.4276 C   0  0  0  0  0  0  0  0  0  0  0  0
   -0.0670    1.2761    0.6160 C   0  0  0  0  0  0  0  0  0  0  0  0
    2.5470   -1.9145    0.4754 H   0  0  0  0  0  0  0  0  0  0  0  0
    2.4432   -0.3802    1.3887 H   0  0  0  0  0  0  0  0  0  0  0  0
    2.1961    0.6584   -0.8428 H   0  0  0  0  0  0  0  0  0  0  0  0
    1.6113   -0.8646   -1.5574 H   0  0  0  0  0  0  0  0  0  0  0  0
    0.1204   -1.1236    1.9056 H   0  0  0  0  0  0  0  0  0  0  0  0
    0.0827   -2.1837    0.4839 H   0  0  0  0  0  0  0  0  0  0  0  0
   -1.3451   -1.1979   -1.1696 H   0  0  0  0  0  0  0  0  0  0  0  0
   -0.7444    0.2261   -2.0366 H   0  0  0  0  0  0  0  0  0  0  0  0
   -2.6723    1.2371   -1.2068 H   0  0  0  0  0  0  0  0  0  0  0  0
   -2.7951    0.1355    0.1859 H   0  0  0  0  0  0  0  0  0  0  0  0
   -1.7610    2.5706    0.8505 H   0  0  0  0  0  0  0  0  0  0  0  0
    0.6712    1.8067    1.1996 H   0  0  0  0  0  0  0  0  0  0  0  0
  4 14  1  0
  1 10  1  0
  2 11  1  0
  5 16  1  0
  5 15  1  0
  1  4  1  0
  1  2  1  0
  1  9  1  0
  4 13  1  0
  3  4  1  0
  2  3  1  0
  2 12  1  0
  3  5  1  0
  5  6  1  0
  3  8  1  0
  6 18  1  0
  6 17  1  0
  6  7  1  0
  7  8  2  0
  8 20  1  0
  7 19  1  0
M  END
$$$$

     RDKit          3D

 17 17  0  0  0  0  0  0  0  0999 V2000
   -0.3567    2.1723   -1.1151 C   0  0  0  0  0  0  0  0  0  0  0  0
   -1.3370    1.1141   -1.3091 N   0  0  0  0  0  0  0  0  0  0  0  0
   -1.5010    0.2862   -0.0965 C   0  0  0  0  0  0  0  0  0  0  0  0
   -0.3069   -0.5729    0.2822 C   0  0  0  0  0  0  0  0  0  0  0  0
    0.2159   -0.4422    1.5226 N   0  0  0  0  0  0  0  0  0  0  0  0
    1.2644   -1.2461    1.7893 C   0  0  0  0  0  0  0  0  0  0  0  0
    1.7745   -2.1320    0.8716 C   0  0  0  0  0  0  0  0  0  0  0  0
    1.2283   -2.2307   -0.3520 N   0  0  0  0  0  0  0  0  0  0  0  0
    0.1670   -1.4339   -0.6524 N   0  0  0  0  0  0  0  0  0  0  0  0
   -0.6035    2.7983   -0.2483 H   0  0  0  0  0  0  0  0  0  0  0  0
   -0.3482    2.8221   -1.9968 H   0  0  0  0  0  0  0  0  0  0  0  0
    0.6554    1.7696   -0.9851 H   0  0  0  0  0  0  0  0  0  0  0  0
   -1.0202    0.5012   -2.0629 H   0  0  0  0  0  0  0  0  0  0  0  0
   -2.3474   -0.3920   -0.2655 H   0  0  0  0  0  0  0  0  0  0  0  0
   -1.7840    0.9219    0.7520 H   0  0  0  0  0  0  0  0  0  0  0  0
    1.6873   -1.1569    2.7844 H   0  0  0  0  0  0  0  0  0  0  0  0
    2.6123   -2.7792    1.0816 H   0  0  0  0  0  0  0  0  0  0  0  0
  6 16  1  0
  1 10  1  0
  1 11  1  0
  5  6  1  0
  6  7  2  0
  7 17  1  0
  1 12  1  0
  1  2  1  0
  4  5  2  0
  7  8  1  0
  2 13  1  0
  2  3  1  0
  4  9  1  0
  3  4  1  0
  8  9  2  0
  3 15  1  0
  3 14  1  0
M  END
$$$$

     RDKit          3D

 23 23  0  0  0  0  0  0  0  0999 V2000
    1.9917   -0.3376   -1.0597 C   0  0  0  0  0  0  0  0  0  0  0  0
    0.6968   -1.0061   -0.6053 C   0  0  0  0  0  0  0  0  0  0  0  0
    0.1563   -0.8371    0.7739 C   0  0  0  0  0  0  0  0  0  0  0  0
    1.1127   -0.2649    1.7672 C   0  0  0  0  0  0  0  0  0  0  0  0
   -0.5313   -0.1571   -0.4518 C   0  0  0  0  0  0  0  0  0  0  0  0
   -1.5727   -0.8365   -1.4165 C   0  0  0  0  0  0  0  0  0  0  0  0
   -0.6555    1.3497   -0.2240 C   0  0  0  0  0  0  0  0  0  0  0  0
   -1.5451    1.7598    0.8907 C   0  0  0  0  0  0  0  0  0  0  0  0
   -0.0849    2.1195   -0.9890 O   0  0  0  0  0  0  0  0  0  0  0  0
    2.8338   -0.9049   -0.6756 H   0  0  0  0  0  0  0  0  0  0  0  0
    2.0532   -0.4469   -2.1039 H   0  0  0  0  0  0  0  0  0  0  0  0
    2.0547    0.6658   -0.5978 H   0  0  0  0  0  0  0  0  0  0  0  0
    0.6407   -2.0842   -0.8911 H   0  0  0  0  0  0  0  0  0  0  0  0
   -0.4160   -1.6330    1.2930 H   0  0  0  0  0  0  0  0  0  0  0  0
    1.1207    0.8347    1.7318 H   0  0  0  0  0  0  0  0  0  0  0  0
    2.0962   -0.6100    1.5814 H   0  0  0  0  0  0  0  0  0  0  0  0
    0.7577   -0.4433    2.7513 H   0  0  0  0  0  0  0  0  0  0  0  0
   -2.5454   -0.3507   -1.4833 H   0  0  0  0  0  0  0  0  0  0  0  0
   -1.0845   -0.6083   -2.4101 H   0  0  0  0  0  0  0  0  0  0  0  0
   -1.6205   -1.9132   -1.3716 H   0  0  0  0  0  0  0  0  0  0  0  0
   -2.0235    2.7853    0.7687 H   0  0  0  0  0  0  0  0  0  0  0  0
   -2.4020    1.0797    0.9002 H   0  0  0  0  0  0  0  0  0  0  0  0
   -1.0332    1.8394    1.8216 H   0  0  0  0  0  0  0  0  0  0  0  0
  1 11  1  0
  1 12  1  0
  1 10  1  0
  1  2  1  0
  4 17  1  0
  2 13  1  0
  2  3  1  0
  2  5  1  0
  4 15  1  0
  3  4  1  0
  4 16  1  0
  3 14  1  0
  3  5  1  0
  6 18  1  0
  5  6  1  0
  5  7  1  0
  7  9  2  0
  6 19  1  0
  6 20  1  0
  7  8  1  0
  8 21  1  0
  8 22  1  0
  8 23  1  0
M  END
$$$$

     RDKit          3D

 23 23  0  0  0  0  0  0  0  0999 V2000
   -0.4473    2.0775    0.6536 C   0  0  0  0  0  0  0  0  0  0  0  0
    0.9962    1.6608    0.4395 C   0  0  0  0  0  0  0  0  0  0  0  0
    1.2321    0.8223   -0.8261 C   0  0  0  0  0  0  0  0  0  0  0  0
    0.4974   -0.5349   -0.9562 C   0  0  0  0  0  0  0  0  0  0  0  0
   -0.6270   -0.3442   -1.8642 O   0  0  0  0  0  0  0  0  0  0  0  0
   -1.7360   -1.1163   -1.4173 C   0  0  0  0  0  0  0  0  0  0  0  0
   -1.3653   -1.5637   -0.0578 C   0  0  0  0  0  0  0  0  0  0  0  0
   -0.1048   -1.2248    0.2321 C   0  0  0  0  0  0  0  0  0  0  0  0
    0.6170   -1.5345    1.4934 C   0  0  0  0  0  0  0  0  0  0  0  0
   -0.5219    2.6892    1.5706 H   0  0  0  0  0  0  0  0  0  0  0  0
   -1.1178    1.2193    0.7765 H   0  0  0  0  0  0  0  0  0  0  0  0
   -0.7992    2.6742   -0.1959 H   0  0  0  0  0  0  0  0  0  0  0  0
    1.3928    1.1305    1.3163 H   0  0  0  0  0  0  0  0  0  0  0  0
    1.5900    2.5686    0.3600 H   0  0  0  0  0  0  0  0  0  0  0  0
    1.0012    1.4574   -1.7089 H   0  0  0  0  0  0  0  0  0  0  0  0
    2.3211    0.6430   -0.8989 H   0  0  0  0  0  0  0  0  0  0  0  0
    1.1818   -1.2302   -1.4671 H   0  0  0  0  0  0  0  0  0  0  0  0
   -1.8669   -1.9548   -2.1021 H   0  0  0  0  0  0  0  0  0  0  0  0
   -2.6278   -0.4851   -1.4285 H   0  0  0  0  0  0  0  0  0  0  0  0
   -2.0234   -2.1160    0.5973 H   0  0  0  0  0  0  0  0  0  0  0  0
    0.1922   -2.4297    1.9788 H   0  0  0  0  0  0  0  0  0  0  0  0
    1.6887   -1.7082    1.3039 H   0  0  0  0  0  0  0  0  0  0  0  0
    0.5269   -0.7004    2.2011 H   0  0  0  0  0  0  0  0  0  0  0  0
  7 20  1  0
  9 21  1  0
  9 22  1  0
  7  8  2  0
  6  7  1  0
  8  9  1  0
  9 23  1  0
  6 19  1  0
  4  8  1  0
  6 18  1  0
  5  6  1  0
  3 15  1  0
  3 16  1  0
  3  4  1  0
  4  5  1  0
  4 17  1  0
  2  3  1  0
  1 11  1  0
  1 10  1  0
  1  2  1  0
  1 12  1  0
  2 14  1  0
  2 13  1  0
M  END
$$$$

     RDKit          3D

 20 22  0  0  0  0  0  0  0  0999 V2000
    2.5800    0.1451   -0.4389 C   0  0  0  0  0  0  0  0  0  0  0  0
    1.5452   -0.0823   -1.3971 O   0  0  0  0  0  0  0  0  0  0  0  0
    0.2449   -0.5022   -0.9035 C   0  0  0  0  0  0  0  0  0  0  0  0
    0.1795   -1.4785    0.3159 C   0  0  0  0  0  0  0  0  0  0  0  0
   -0.8412   -1.4621    1.4653 C   0  0  0  0  0  0  0  0  0  0  0  0
   -0.1097   -0.3072    1.1520 N   0  0  0  0  0  0  0  0  0  0  0  0
   -0.5474    0.3845   -0.0126 C   0  0  0  0  0  0  0  0  0  0  0  0
   -1.9051    0.9485   -0.2418 C   0  0  0  0  0  0  0  0  0  0  0  0
   -0.7123    1.8615   -0.1050 C   0  0  0  0  0  0  0  0  0  0  0  0
    2.2986    0.9361    0.2665 H   0  0  0  0  0  0  0  0  0  0  0  0
    2.8171   -0.7875    0.0909 H   0  0  0  0  0  0  0  0  0  0  0  0
    3.4743    0.4808   -0.9779 H   0  0  0  0  0  0  0  0  0  0  0  0
   -0.3524   -0.8616   -1.7561 H   0  0  0  0  0  0  0  0  0  0  0  0
   -0.2663   -2.3242   -0.2313 H   0  0  0  0  0  0  0  0  0  0  0  0
   -0.5642   -1.9949    2.3661 H   0  0  0  0  0  0  0  0  0  0  0  0
   -1.9022   -1.5050    1.2440 H   0  0  0  0  0  0  0  0  0  0  0  0
   -2.6125    0.9173    0.5789 H   0  0  0  0  0  0  0  0  0  0  0  0
   -2.3568    0.8348   -1.2210 H   0  0  0  0  0  0  0  0  0  0  0  0
   -0.6164    2.4347    0.8049 H   0  0  0  0  0  0  0  0  0  0  0  0
   -0.3530    2.3621   -0.9994 H   0  0  0  0  0  0  0  0  0  0  0  0
  9 20  1  0
  9 19  1  0
  7  9  1  0
  8  9  1  0
  3 13  1  0
  6  7  1  0
  7  8  1  0
  3  7  1  0
  4  6  1  0
  5  6  1  0
  8 17  1  0
  8 18  1  0
  3  4  1  0
  2  3  1  0
  4 14  1  0
  4  5  1  0
  1 11  1  0
  1  2  1  0
  5 15  1  0
  5 16  1  0
  1 10  1  0
  1 12  1  0
M  END
$$$$

     RDKit          3D

 20 22  0  0  0  0  0  0  0  0999 V2000
   -0.7646    1.2777    1.2171 C   0  0  0  0  0  0  0  0  0  0  0  0
   -1.2661   -0.0142    0.2976 C   0  0  0  0  0  0  0  0  0  0  0  0
   -0.9296   -0.6672   -1.2688 C   0  0  0  0  0  0  0  0  0  0  0  0
   -0.5076   -1.8255   -0.3977 O   0  0  0  0  0  0  0  0  0  0  0  0
    0.1177   -0.6848    0.3277 C   0  0  0  0  0  0  0  0  0  0  0  0
    0.7588   -1.3091    1.5290 C   0  0  0  0  0  0  0  0  0  0  0  0
    0.4790   -0.2518   -1.0837 C   0  0  0  0  0  0  0  0  0  0  0  0
    1.5313    0.6043   -1.6923 C   0  0  0  0  0  0  0  0  0  0  0  0
    0.2741    1.3097   -1.5362 N   0  0  0  0  0  0  0  0  0  0  0  0
    0.2420    1.6268    1.0079 H   0  0  0  0  0  0  0  0  0  0  0  0
   -1.4152    2.0850    1.0719 H   0  0  0  0  0  0  0  0  0  0  0  0
   -0.7948    1.0460    2.2497 H   0  0  0  0  0  0  0  0  0  0  0  0
   -2.3337   -0.1764    0.5644 H   0  0  0  0  0  0  0  0  0  0  0  0
   -1.6950   -0.9851   -2.0046 H   0  0  0  0  0  0  0  0  0  0  0  0
    0.2578   -0.7822    2.3616 H   0  0  0  0  0  0  0  0  0  0  0  0
    1.7854   -1.2464    1.6152 H   0  0  0  0  0  0  0  0  0  0  0  0
    0.6078   -2.3916    1.6250 H   0  0  0  0  0  0  0  0  0  0  0  0
    1.9386    0.2829   -2.5986 H   0  0  0  0  0  0  0  0  0  0  0  0
    2.2056    0.9411   -1.0051 H   0  0  0  0  0  0  0  0  0  0  0  0
   -0.4914    1.1607   -2.2801 H   0  0  0  0  0  0  0  0  0  0  0  0
  3 14  1  0
  8 19  1  0
  1 11  1  0
  2  3  1  0
  3  7  1  0
  3  4  1  0
  2 13  1  0
  9 20  1  0
  7  8  1  0
  8  9  1  0
  8 18  1  0
  1  2  1  0
  2  5  1  0
  1 10  1  0
  1 12  1  0
  7  9  1  0
  5  7  1  0
  4  5  1  0
  5  6  1  0
  6 16  1  0
  6 15  1  0
  6 17  1  0
M  END
$$$$

     RDKit          3D

 18 19  0  0  0  0  0  0  0  0999 V2000
    3.2366    1.7136   -0.2582 O   0  0  0  0  0  0  0  0  0  0  0  0
    2.2807    1.5389    0.4921 C   0  0  0  0  0  0  0  0  0  0  0  0
    1.0824    0.9657    0.1553 N   0  0  0  0  0  0  0  0  0  0  0  0
    0.5030   -0.1359    0.8189 C   0  0  0  0  0  0  0  0  0  0  0  0
   -0.9659   -0.0874    1.1298 C   0  0  0  0  0  0  0  0  0  0  0  0
   -1.8064   -0.8480    0.0922 C   0  0  0  0  0  0  0  0  0  0  0  0
   -1.3940   -0.5631   -1.3282 C   0  0  0  0  0  0  0  0  0  0  0  0
   -0.1296   -0.2333   -1.6406 C   0  0  0  0  0  0  0  0  0  0  0  0
    0.9534   -0.1672   -0.6603 C   0  0  0  0  0  0  0  0  0  0  0  0
    2.3024    1.8412    1.5559 H   0  0  0  0  0  0  0  0  0  0  0  0
    1.1130   -0.6441    1.5536 H   0  0  0  0  0  0  0  0  0  0  0  0
   -1.2985    0.9597    1.1725 H   0  0  0  0  0  0  0  0  0  0  0  0
   -1.1457   -0.5034    2.1301 H   0  0  0  0  0  0  0  0  0  0  0  0
   -1.7195   -1.9281    0.2666 H   0  0  0  0  0  0  0  0  0  0  0  0
   -2.8621   -0.5807    0.2149 H   0  0  0  0  0  0  0  0  0  0  0  0
   -2.1491   -0.6262   -2.1077 H   0  0  0  0  0  0  0  0  0  0  0  0
    0.1262   -0.0217   -2.6767 H   0  0  0  0  0  0  0  0  0  0  0  0
    1.8732   -0.6799   -0.9103 H   0  0  0  0  0  0  0  0  0  0  0  0
  9 18  1  0
  4 11  1  0
  3  9  1  0
  3  4  1  0
  2  3  1  0
  4  9  1  0
  8  9  1  0
  4  5  1  0
  2 10  1  0
  1  2  2  0
  8 17  1  0
  7  8  2  0
  5 13  1  0
  5 12  1  0
  5  6  1  0
  6  7  1  0
  7 16  1  0
  6 15  1  0
  6 14  1  0
M  END
$$$$

     RDKit          3D

 15 16  0  0  0  0  0  0  0  0999 V2000
    0.9528   -1.1328    2.2393 O   0  0  0  0  0  0  0  0  0  0  0  0
    0.3439   -0.9850    1.1873 C   0  0  0  0  0  0  0  0  0  0  0  0
   -1.1930   -0.9014    0.8726 C   0  0  0  0  0  0  0  0  0  0  0  0
   -0.7572   -0.2772   -0.4887 C   0  0  0  0  0  0  0  0  0  0  0  0
   -0.6421    1.2137   -0.5376 C   0  0  0  0  0  0  0  0  0  0  0  0
    0.6171    1.6731   -0.4930 C   0  0  0  0  0  0  0  0  0  0  0  0
    1.5539    0.5115   -0.5308 C   0  0  0  0  0  0  0  0  0  0  0  0
    2.7254    0.6445   -0.8905 O   0  0  0  0  0  0  0  0  0  0  0  0
    0.7106   -0.7887   -0.3069 C   0  0  0  0  0  0  0  0  0  0  0  0
   -1.7752   -0.2527    1.5386 H   0  0  0  0  0  0  0  0  0  0  0  0
   -1.6627   -1.8862    0.7622 H   0  0  0  0  0  0  0  0  0  0  0  0
   -1.2695   -0.6772   -1.3704 H   0  0  0  0  0  0  0  0  0  0  0  0
   -1.5249    1.8402   -0.5859 H   0  0  0  0  0  0  0  0  0  0  0  0
    0.9573    2.6963   -0.5232 H   0  0  0  0  0  0  0  0  0  0  0  0
    0.9636   -1.6782   -0.8732 H   0  0  0  0  0  0  0  0  0  0  0  0
  9 15  1  0
  1  2  2  0
  3 10  1  0
  2  9  1  0
  2  3  1  0
  4  9  1  0
  7  9  1  0
  4 12  1  0
  3  4  1  0
  3 11  1  0
  4  5  1  0
  7  8  2  0
  6  7  1  0
  5  6  2  0
  5 13  1  0
  6 14  1  0
M  END
$$$$

     RDKit          3D

 18 17  0  0  0  0  0  0  0  0999 V2000
    1.5307   -1.4638    1.6057 C   0  0  0  0  0  0  0  0  0  0  0  0
    0.4581   -0.4446    1.2384 C   0  0  0  0  0  0  0  0  0  0  0  0
    0.4389   -0.3491   -0.1956 O   0  0  0  0  0  0  0  0  0  0  0  0
   -0.0274    0.8262   -0.6965 C   0  0  0  0  0  0  0  0  0  0  0  0
   -0.3676    1.8004   -0.0364 O   0  0  0  0  0  0  0  0  0  0  0  0
   -0.0384    0.7718   -2.2231 C   0  0  0  0  0  0  0  0  0  0  0  0
   -0.7859    1.9132   -2.7918 N   0  0  0  0  0  0  0  0  0  0  0  0
   -0.8588   -0.8911    1.7223 C   0  0  0  0  0  0  0  0  0  0  0  0
   -1.9407   -1.2406    2.1117 C   0  0  0  0  0  0  0  0  0  0  0  0
    1.6224   -1.5769    2.6909 H   0  0  0  0  0  0  0  0  0  0  0  0
    1.3096   -2.4480    1.1770 H   0  0  0  0  0  0  0  0  0  0  0  0
    2.5017   -1.1558    1.2018 H   0  0  0  0  0  0  0  0  0  0  0  0
    0.7334    0.5163    1.6899 H   0  0  0  0  0  0  0  0  0  0  0  0
   -0.5109   -0.1585   -2.5539 H   0  0  0  0  0  0  0  0  0  0  0  0
    0.9950    0.8070   -2.5815 H   0  0  0  0  0  0  0  0  0  0  0  0
   -0.4115    2.7683   -2.3719 H   0  0  0  0  0  0  0  0  0  0  0  0
   -1.7459    1.8685   -2.4448 H   0  0  0  0  0  0  0  0  0  0  0  0
   -2.9029   -1.5431    2.4577 H   0  0  0  0  0  0  0  0  0  0  0  0
  9 18  1  0
  8  9  3  0
  2  8  1  0
  1 11  1  0
  1 10  1  0
  1  2  1  0
  1 12  1  0
  2  3  1  0
  2 13  1  0
  3  4  1  0
  6 14  1  0
  6 15  1  0
  4  6  1  0
  6  7  1  0
  4  5  2  0
  7 17  1  0
  7 16  1  0
M  END
$$$$

     RDKit          3D

 21 22  0  0  0  0  0  0  0  0999 V2000
    0.9458    1.1835   -0.9287 C   0  0  0  0  0  0  0  0  0  0  0  0
    0.2832   -0.1621   -0.6808 C   0  0  0  0  0  0  0  0  0  0  0  0
    0.8098   -1.2539   -1.6365 C   0  0  0  0  0  0  0  0  0  0  0  0
    2.2339   -1.3445   -1.3969 O   0  0  0  0  0  0  0  0  0  0  0  0
   -0.1123   -0.7512    0.7214 C   0  0  0  0  0  0  0  0  0  0  0  0
   -0.8439   -0.2136    1.9024 C   0  0  0  0  0  0  0  0  0  0  0  0
   -1.4649    0.8357    1.0263 C   0  0  0  0  0  0  0  0  0  0  0  0
   -0.9151    2.1476    1.2657 O   0  0  0  0  0  0  0  0  0  0  0  0
   -1.0816    0.0022   -0.1550 C   0  0  0  0  0  0  0  0  0  0  0  0
    1.9090    1.3492   -0.4683 H   0  0  0  0  0  0  0  0  0  0  0  0
    1.0987    1.2851   -2.0520 H   0  0  0  0  0  0  0  0  0  0  0  0
    0.2791    2.0227   -0.6695 H   0  0  0  0  0  0  0  0  0  0  0  0
    0.6110   -1.0872   -2.6819 H   0  0  0  0  0  0  0  0  0  0  0  0
    0.3840   -2.2180   -1.3385 H   0  0  0  0  0  0  0  0  0  0  0  0
    2.3565   -1.7212   -0.5128 H   0  0  0  0  0  0  0  0  0  0  0  0
   -0.2960   -1.8035    0.7387 H   0  0  0  0  0  0  0  0  0  0  0  0
   -0.1715    0.0967    2.7705 H   0  0  0  0  0  0  0  0  0  0  0  0
   -1.5953   -0.8409    2.3386 H   0  0  0  0  0  0  0  0  0  0  0  0
   -2.5634    0.8548    1.1953 H   0  0  0  0  0  0  0  0  0  0  0  0
    0.0592    1.9696    1.2945 H   0  0  0  0  0  0  0  0  0  0  0  0
   -1.9263   -0.3511   -0.7325 H   0  0  0  0  0  0  0  0  0  0  0  0
  4 15  1  0
  3  4  1  0
  1 11  1  0
  5 16  1  0
  3 13  1  0
  2  3  1  0
  3 14  1  0
  2  5  1  0
  5  6  1  0
  5  9  1  0
  6 18  1  0
  1  2  1  0
  1 10  1  0
  1 12  1  0
  2  9  1  0
  6 17  1  0
  6  7  1  0
  9 21  1  0
  7  9  1  0
  7 19  1  0
  7  8  1  0
  8 20  1  0
M  END
$$$$

     RDKit          3D

 23 23  0  0  0  0  0  0  0  0999 V2000
    1.5642    2.0760   -0.0114 C   0  0  0  0  0  0  0  0  0  0  0  0
    1.8734    0.7992    0.7580 C   0  0  0  0  0  0  0  0  0  0  0  0
    0.8234   -0.3198    0.6237 C   0  0  0  0  0  0  0  0  0  0  0  0
    0.6633   -0.8331   -0.8233 C   0  0  0  0  0  0  0  0  0  0  0  0
   -0.4328   -0.1728   -1.6146 C   0  0  0  0  0  0  0  0  0  0  0  0
   -1.7204   -0.2801   -1.2592 C   0  0  0  0  0  0  0  0  0  0  0  0
   -2.1775   -1.0515   -0.0547 C   0  0  0  0  0  0  0  0  0  0  0  0
   -1.4530   -0.7832    1.2795 C   0  0  0  0  0  0  0  0  0  0  0  0
   -0.3906    0.1622    1.2089 O   0  0  0  0  0  0  0  0  0  0  0  0
    2.3098    2.8389    0.2350 H   0  0  0  0  0  0  0  0  0  0  0  0
    0.5787    2.4750    0.2521 H   0  0  0  0  0  0  0  0  0  0  0  0
    1.5989    1.9113   -1.0923 H   0  0  0  0  0  0  0  0  0  0  0  0
    1.9615    1.0624    1.8227 H   0  0  0  0  0  0  0  0  0  0  0  0
    2.8515    0.4153    0.4457 H   0  0  0  0  0  0  0  0  0  0  0  0
    1.1847   -1.1500    1.2441 H   0  0  0  0  0  0  0  0  0  0  0  0
    1.6124   -0.7533   -1.3660 H   0  0  0  0  0  0  0  0  0  0  0  0
    0.4424   -1.9072   -0.7962 H   0  0  0  0  0  0  0  0  0  0  0  0
   -0.1555    0.3951   -2.4970 H   0  0  0  0  0  0  0  0  0  0  0  0
   -2.4850    0.2043   -1.8684 H   0  0  0  0  0  0  0  0  0  0  0  0
   -2.1115   -2.1274   -0.2956 H   0  0  0  0  0  0  0  0  0  0  0  0
   -3.2537   -0.8640    0.0936 H   0  0  0  0  0  0  0  0  0  0  0  0
   -1.0980   -1.7220    1.7250 H   0  0  0  0  0  0  0  0  0  0  0  0
   -2.1863   -0.3754    1.9904 H   0  0  0  0  0  0  0  0  0  0  0  0
  5 18  1  0
  4 16  1  0
  2 13  1  0
  3 15  1  0
  1 11  1  0
  4  5  1  0
  5  6  2  0
  3  4  1  0
  4 17  1  0
  6 19  1  0
  2  3  1  0
  3  9  1  0
  1  2  1  0
  2 14  1  0
  6  7  1  0
  1 10  1  0
  1 12  1  0
  8 22  1  0
  8  9  1  0
  7  8  1  0
  8 23  1  0
  7 20  1  0
  7 21  1  0
M  END
$$$$

     RDKit          3D

 20 20  0  0  0  0  0  0  0  0999 V2000
   -1.2021    1.9748    0.8058 C   0  0  0  0  0  0  0  0  0  0  0  0
   -1.1741    0.6291    1.2784 O   0  0  0  0  0  0  0  0  0  0  0  0
    0.0875   -0.0198    1.2524 C   0  0  0  0  0  0  0  0  0  0  0  0
    0.1898   -1.0619    0.1462 C   0  0  0  0  0  0  0  0  0  0  0  0
   -0.7107   -0.9291   -1.0933 C   0  0  0  0  0  0  0  0  0  0  0  0
    0.7213   -0.7731   -1.2207 N   0  0  0  0  0  0  0  0  0  0  0  0
    1.1738    0.5850   -1.5053 C   0  0  0  0  0  0  0  0  0  0  0  0
    0.5800   -2.4603    0.5637 C   0  0  0  0  0  0  0  0  0  0  0  0
    1.1315   -2.6947    1.6382 O   0  0  0  0  0  0  0  0  0  0  0  0
   -1.1762    2.0123   -0.2890 H   0  0  0  0  0  0  0  0  0  0  0  0
   -2.1293    2.4740    1.1673 H   0  0  0  0  0  0  0  0  0  0  0  0
   -0.3496    2.5285    1.2169 H   0  0  0  0  0  0  0  0  0  0  0  0
    0.9554    0.6808    1.2514 H   0  0  0  0  0  0  0  0  0  0  0  0
    0.1671   -0.5648    2.2114 H   0  0  0  0  0  0  0  0  0  0  0  0
   -1.1670   -1.8270   -1.5128 H   0  0  0  0  0  0  0  0  0  0  0  0
   -1.4560   -0.0905   -0.9814 H   0  0  0  0  0  0  0  0  0  0  0  0
    2.0488    0.4532   -2.1553 H   0  0  0  0  0  0  0  0  0  0  0  0
    0.3942    1.1987   -1.9940 H   0  0  0  0  0  0  0  0  0  0  0  0
    1.5816    1.1376   -0.6361 H   0  0  0  0  0  0  0  0  0  0  0  0
    0.3338   -3.2528   -0.1438 H   0  0  0  0  0  0  0  0  0  0  0  0
  8  9  2  0
  1 10  1  0
  1 12  1  0
  8 20  1  0
  4  8  1  0
  1 11  1  0
  1  2  1  0
  3 13  1  0
  3  4  1  0
  4  6  1  0
  4  5  1  0
  2  3  1  0
  3 14  1  0
  5  6  1  0
  6  7  1  0
  5 15  1  0
  5 16  1  0
  7 18  1  0
  7 19  1  0
  7 17  1  0
M  END
$$$$

     RDKit          3D

 17 17  0  0  0  0  0  0  0  0999 V2000
    2.3238   -0.5552   -0.9012 C   0  0  0  0  0  0  0  0  0  0  0  0
    1.2279   -0.0862   -0.0842 N   0  0  0  0  0  0  0  0  0  0  0  0
    1.2769    1.1942    0.4089 C   0  0  0  0  0  0  0  0  0  0  0  0
    0.2644    1.9230    0.7789 N   0  0  0  0  0  0  0  0  0  0  0  0
   -1.0037    1.4056    0.6125 C   0  0  0  0  0  0  0  0  0  0  0  0
   -2.0190    2.1036    0.7113 O   0  0  0  0  0  0  0  0  0  0  0  0
   -1.1229   -0.0469    0.2859 C   0  0  0  0  0  0  0  0  0  0  0  0
   -2.4874   -0.6356    0.3465 C   0  0  0  0  0  0  0  0  0  0  0  0
    0.0015   -0.6921   -0.0606 C   0  0  0  0  0  0  0  0  0  0  0  0
    2.3448   -1.6551   -0.9464 H   0  0  0  0  0  0  0  0  0  0  0  0
    3.2930   -0.2311   -0.5118 H   0  0  0  0  0  0  0  0  0  0  0  0
    2.1724   -0.1763   -1.9187 H   0  0  0  0  0  0  0  0  0  0  0  0
    2.2978    1.5733    0.5001 H   0  0  0  0  0  0  0  0  0  0  0  0
   -2.8641   -0.6424    1.3684 H   0  0  0  0  0  0  0  0  0  0  0  0
   -3.1996   -0.0639   -0.2738 H   0  0  0  0  0  0  0  0  0  0  0  0
   -2.5075   -1.6589   -0.0155 H   0  0  0  0  0  0  0  0  0  0  0  0
    0.0016   -1.7557   -0.3002 H   0  0  0  0  0  0  0  0  0  0  0  0
  3 13  1  0
  3  4  2  0
  4  5  1  0
  2  3  1  0
  1 11  1  0
  5  6  2  0
  5  7  1  0
  1  2  1  0
  2  9  1  0
  1 10  1  0
  1 12  1  0
  7  9  2  0
  9 17  1  0
  7  8  1  0
  8 14  1  0
  8 16  1  0
  8 15  1  0
M  END
$$$$

     RDKit          3D

 20 21  0  0  0  0  0  0  0  0999 V2000
   -1.3388    0.7473   -1.6984 C   0  0  0  0  0  0  0  0  0  0  0  0
   -0.6796    0.5520   -0.3781 C   0  0  0  0  0  0  0  0  0  0  0  0
   -0.8958    1.3176    0.7125 C   0  0  0  0  0  0  0  0  0  0  0  0
    0.0109    0.8866    1.8362 C   0  0  0  0  0  0  0  0  0  0  0  0
    0.8419   -0.2440    1.2640 C   0  0  0  0  0  0  0  0  0  0  0  0
    1.7832   -0.0281    0.1057 C   0  0  0  0  0  0  0  0  0  0  0  0
    0.3635   -0.4905   -0.1645 C   0  0  0  0  0  0  0  0  0  0  0  0
    0.1247   -1.8965   -0.6310 C   0  0  0  0  0  0  0  0  0  0  0  0
   -1.3454    1.8135   -1.9734 H   0  0  0  0  0  0  0  0  0  0  0  0
   -2.3724    0.3729   -1.6706 H   0  0  0  0  0  0  0  0  0  0  0  0
   -0.8120    0.2186   -2.5015 H   0  0  0  0  0  0  0  0  0  0  0  0
   -1.5954    2.1372    0.7752 H   0  0  0  0  0  0  0  0  0  0  0  0
    0.6501    1.7151    2.1605 H   0  0  0  0  0  0  0  0  0  0  0  0
   -0.5814    0.5299    2.6852 H   0  0  0  0  0  0  0  0  0  0  0  0
    1.0102   -1.0689    1.9401 H   0  0  0  0  0  0  0  0  0  0  0  0
    2.0568    0.9831   -0.1639 H   0  0  0  0  0  0  0  0  0  0  0  0
    2.5869   -0.7376   -0.0366 H   0  0  0  0  0  0  0  0  0  0  0  0
   -0.9463   -2.0933   -0.7645 H   0  0  0  0  0  0  0  0  0  0  0  0
    0.6251   -2.0848   -1.5859 H   0  0  0  0  0  0  0  0  0  0  0  0
    0.5136   -2.6303    0.0892 H   0  0  0  0  0  0  0  0  0  0  0  0
  3 12  1  0
  4 14  1  0
  4 13  1  0
  3  4  1  0
  2  3  2  0
  1 10  1  0
  4  5  1  0
  1  2  1  0
  2  7  1  0
  1 11  1  0
  1  9  1  0
  5  7  1  0
  5 15  1  0
  5  6  1  0
  6 17  1  0
  6  7  1  0
  7  8  1  0
  6 16  1  0
  8 19  1  0
  8 18  1  0
  8 20  1  0
M  END
$$$$

     RDKit          3D

 17 18  0  0  0  0  0  0  0  0999 V2000
    1.2597   -1.4463   -1.7210 O   0  0  0  0  0  0  0  0  0  0  0  0
    1.3563   -1.5116   -0.3701 C   0  0  0  0  0  0  0  0  0  0  0  0
    2.3315   -2.0405    0.1513 O   0  0  0  0  0  0  0  0  0  0  0  0
    0.2154   -0.8303    0.3739 C   0  0  0  0  0  0  0  0  0  0  0  0
   -1.0432   -0.7637   -0.4426 N   0  0  0  0  0  0  0  0  0  0  0  0
   -0.7157   -0.5353   -1.3900 H   0  0  0  0  0  0  0  0  0  0  0  0
    2.0686   -1.8974   -2.0410 H   0  0  0  0  0  0  0  0  0  0  0  0
   -1.7838    0.4236    0.0370 C   0  0  0  0  0  0  0  0  0  0  0  0
   -0.7400    1.3661    0.5505 C   0  0  0  0  0  0  0  0  0  0  0  0
    0.4421    1.6953   -0.2456 N   0  0  0  0  0  0  0  0  0  0  0  0
    0.5125    0.6017    0.7335 C   0  0  0  0  0  0  0  0  0  0  0  0
   -0.0009   -1.4199    1.2718 H   0  0  0  0  0  0  0  0  0  0  0  0
   -2.4532    0.1277    0.8516 H   0  0  0  0  0  0  0  0  0  0  0  0
   -2.3807    0.8689   -0.7659 H   0  0  0  0  0  0  0  0  0  0  0  0
   -1.0821    2.0794    1.2820 H   0  0  0  0  0  0  0  0  0  0  0  0
    0.8920    2.5405    0.1082 H   0  0  0  0  0  0  0  0  0  0  0  0
    1.1215    0.7418    1.6162 H   0  0  0  0  0  0  0  0  0  0  0  0
  5  6  1  0
  4 12  1  0
  4  5  1  0
  5  8  1  0
  2  3  2  0
  8 13  1  0
  2  4  1  0
  4 11  1  0
  1  2  1  0
  1  7  1  0
  8 14  1  0
  8  9  1  0
 11 17  1  0
  9 11  1  0
 10 11  1  0
  9 15  1  0
  9 10  1  0
 10 16  1  0
M  END
$$$$

     RDKit          3D

 17 18  0  0  0  0  0  0  0  0999 V2000
    0.0358    3.2492   -1.1523 C   0  0  0  0  0  0  0  0  0  0  0  0
    0.1628    2.0083   -0.3819 C   0  0  0  0  0  0  0  0  0  0  0  0
    0.2518    1.0130    0.2894 C   0  0  0  0  0  0  0  0  0  0  0  0
    0.3835   -0.1535    1.1400 C   0  0  0  0  0  0  0  0  0  0  0  0
   -0.8733   -0.6166    1.6992 O   0  0  0  0  0  0  0  0  0  0  0  0
   -1.1903   -1.3687    0.4938 C   0  0  0  0  0  0  0  0  0  0  0  0
   -0.3887   -2.1337   -0.5194 C   0  0  0  0  0  0  0  0  0  0  0  0
    0.4323   -1.4918    0.4875 C   0  0  0  0  0  0  0  0  0  0  0  0
    1.0437   -2.4789    1.3647 O   0  0  0  0  0  0  0  0  0  0  0  0
   -0.9067    3.2633   -1.6914 H   0  0  0  0  0  0  0  0  0  0  0  0
    0.8361    3.3308   -1.8916 H   0  0  0  0  0  0  0  0  0  0  0  0
    0.0656    4.1235   -0.4863 H   0  0  0  0  0  0  0  0  0  0  0  0
    1.1224   -0.0173    1.9376 H   0  0  0  0  0  0  0  0  0  0  0  0
   -1.8604   -0.7407   -0.1080 H   0  0  0  0  0  0  0  0  0  0  0  0
   -0.3499   -1.7450   -1.5400 H   0  0  0  0  0  0  0  0  0  0  0  0
   -0.4658   -3.2279   -0.5171 H   0  0  0  0  0  0  0  0  0  0  0  0
    1.7011   -3.0139    0.8760 H   0  0  0  0  0  0  0  0  0  0  0  0
  9 17  1  0
  8  9  1  0
  1 10  1  0
  4 13  1  0
  1 11  1  0
  4  8  1  0
  7  8  1  0
  6  8  1  0
  1  2  1  0
  1 12  1  0
  2  3  3  0
  3  4  1  0
  4  5  1  0
  7 15  1  0
  6  7  1  0
  7 16  1  0
  5  6  1  0
  6 14  1  0
M  END
$$$$

     RDKit          3D

 25 25  0  0  0  0  0  0  0  0999 V2000
   -0.5540    2.4493   -0.6570 C   0  0  0  0  0  0  0  0  0  0  0  0
   -0.4149    1.1656    0.1950 C   0  0  0  0  0  0  0  0  0  0  0  0
    0.6273    1.4380    1.2876 C   0  0  0  0  0  0  0  0  0  0  0  0
    0.5897    0.4632    2.3254 O   0  0  0  0  0  0  0  0  0  0  0  0
   -0.0582    0.0392   -0.7400 C   0  0  0  0  0  0  0  0  0  0  0  0
   -0.6962   -1.3225   -0.6220 C   0  0  0  0  0  0  0  0  0  0  0  0
   -1.6400   -1.6596    0.4709 C   0  0  0  0  0  0  0  0  0  0  0  0
    0.7484   -1.1642   -0.2882 C   0  0  0  0  0  0  0  0  0  0  0  0
    1.8030   -1.7166   -1.1578 C   0  0  0  0  0  0  0  0  0  0  0  0
    0.4502    2.7170   -1.0460 H   0  0  0  0  0  0  0  0  0  0  0  0
   -1.2364    2.3343   -1.4967 H   0  0  0  0  0  0  0  0  0  0  0  0
   -0.8954    3.2654   -0.0427 H   0  0  0  0  0  0  0  0  0  0  0  0
   -1.4299    0.9895    0.6007 H   0  0  0  0  0  0  0  0  0  0  0  0
    1.6309    1.4245    0.8850 H   0  0  0  0  0  0  0  0  0  0  0  0
    0.4707    2.4389    1.7546 H   0  0  0  0  0  0  0  0  0  0  0  0
   -0.0923    0.6870    2.9840 H   0  0  0  0  0  0  0  0  0  0  0  0
    0.1501    0.3815   -1.7813 H   0  0  0  0  0  0  0  0  0  0  0  0
   -0.9633   -1.8407   -1.5045 H   0  0  0  0  0  0  0  0  0  0  0  0
   -1.3695   -1.3078    1.4314 H   0  0  0  0  0  0  0  0  0  0  0  0
   -2.6581   -1.2541    0.2413 H   0  0  0  0  0  0  0  0  0  0  0  0
   -1.7362   -2.7395    0.5708 H   0  0  0  0  0  0  0  0  0  0  0  0
    1.0188   -1.2373    0.7382 H   0  0  0  0  0  0  0  0  0  0  0  0
    2.8014   -1.4133   -0.8088 H   0  0  0  0  0  0  0  0  0  0  0  0
    1.7761   -2.8062   -1.1687 H   0  0  0  0  0  0  0  0  0  0  0  0
    1.6777   -1.3314   -2.1713 H   0  0  0  0  0  0  0  0  0  0  0  0
  7 21  1  0
  7 20  1  0
  7 19  1  0
  6  7  1  0
  1 11  1  0
  6 18  1  0
  5  6  1  0
  6  8  1  0
  1 10  1  0
  1 12  1  0
  1  2  1  0
  2 13  1  0
  9 23  1  0
  9 25  1  0
  5  8  1  0
  2  5  1  0
  5 17  1  0
  8  9  1  0
  8 22  1  0
  2  3  1  0
  9 24  1  0
  3  4  1  0
  3 15  1  0
  3 14  1  0
  4 16  1  0
M  END
$$$$

     RDKit          3D

 14 13  0  0  0  0  0  0  0  0999 V2000
    1.4785    2.0060   -0.0237 O   0  0  0  0  0  0  0  0  0  0  0  0
    0.8477    1.4505    1.1259 C   0  0  0  0  0  0  0  0  0  0  0  0
   -0.5819    1.0288    0.7939 C   0  0  0  0  0  0  0  0  0  0  0  0
   -0.6182   -0.1959   -0.0239 C   0  0  0  0  0  0  0  0  0  0  0  0
   -0.6601   -1.1960   -0.6917 C   0  0  0  0  0  0  0  0  0  0  0  0
   -0.7132   -2.4092   -1.4981 C   0  0  0  0  0  0  0  0  0  0  0  0
    0.4869   -3.0292   -1.5139 F   0  0  0  0  0  0  0  0  0  0  0  0
   -1.0625   -2.1318   -2.7741 F   0  0  0  0  0  0  0  0  0  0  0  0
   -1.6235   -3.2787   -0.9978 F   0  0  0  0  0  0  0  0  0  0  0  0
    2.3893    2.2455    0.2304 H   0  0  0  0  0  0  0  0  0  0  0  0
    0.8332    2.2235    1.9011 H   0  0  0  0  0  0  0  0  0  0  0  0
    1.4462    0.6058    1.4850 H   0  0  0  0  0  0  0  0  0  0  0  0
   -1.1265    0.8436    1.7266 H   0  0  0  0  0  0  0  0  0  0  0  0
   -1.0958    1.8371    0.2604 H   0  0  0  0  0  0  0  0  0  0  0  0
  6  8  1  0
  2 11  1  0
  3 14  1  0
  5  6  1  0
  6  7  1  0
  6  9  1  0
  4  5  3  0
  1  2  1  0
  2  3  1  0
  2 12  1  0
  3  4  1  0
  1 10  1  0
  3 13  1  0
M  END
$$$$

     RDKit          3D

 16 17  0  0  0  0  0  0  0  0999 V2000
   -1.1164    0.7894   -1.6698 C   0  0  0  0  0  0  0  0  0  0  0  0
   -0.0358    0.7557   -0.6042 C   0  0  0  0  0  0  0  0  0  0  0  0
    0.8328   -0.4900   -0.7322 C   0  0  0  0  0  0  0  0  0  0  0  0
    1.4269   -0.8672   -1.7338 O   0  0  0  0  0  0  0  0  0  0  0  0
    0.8972   -1.1951    0.5694 C   0  0  0  0  0  0  0  0  0  0  0  0
    1.4675   -0.4025    1.6660 N   0  0  0  0  0  0  0  0  0  0  0  0
    0.0055   -0.4579    1.5331 C   0  0  0  0  0  0  0  0  0  0  0  0
   -0.6239    0.6625    0.7966 C   0  0  0  0  0  0  0  0  0  0  0  0
   -1.4882    1.3684    1.2849 O   0  0  0  0  0  0  0  0  0  0  0  0
   -1.8339    1.5895   -1.4808 H   0  0  0  0  0  0  0  0  0  0  0  0
   -0.6757    0.9905   -2.6603 H   0  0  0  0  0  0  0  0  0  0  0  0
   -1.6541   -0.1694   -1.7245 H   0  0  0  0  0  0  0  0  0  0  0  0
    0.5933    1.6465   -0.6377 H   0  0  0  0  0  0  0  0  0  0  0  0
    0.9618   -2.2738    0.6193 H   0  0  0  0  0  0  0  0  0  0  0  0
    1.7734   -1.0012    2.4272 H   0  0  0  0  0  0  0  0  0  0  0  0
   -0.5303   -0.9456    2.3469 H   0  0  0  0  0  0  0  0  0  0  0  0
  3  4  2  0
  5 14  1  0
  3  5  1  0
  2  3  1  0
  1 11  1  0
  5  6  1  0
  5  7  1  0
  2 13  1  0
  1  2  1  0
  2  8  1  0
  1 10  1  0
  1 12  1  0
  6 15  1  0
  6  7  1  0
  7  8  1  0
  7 16  1  0
  8  9  2  0
M  END
$$$$

     RDKit          3D

 13 13  0  0  0  0  0  0  0  0999 V2000
    1.8788   -1.6329    1.1596 O   0  0  0  0  0  0  0  0  0  0  0  0
    1.1917   -0.6664    1.5063 C   0  0  0  0  0  0  0  0  0  0  0  0
    0.2338    0.1589    0.6628 C   0  0  0  0  0  0  0  0  0  0  0  0
   -0.2696   -0.3631   -0.6831 C   0  0  0  0  0  0  0  0  0  0  0  0
   -1.6336   -0.3944   -0.1552 O   0  0  0  0  0  0  0  0  0  0  0  0
   -1.1834   -0.1865    1.1056 C   0  0  0  0  0  0  0  0  0  0  0  0
   -1.7686   -0.2894    2.1675 O   0  0  0  0  0  0  0  0  0  0  0  0
   -0.1723    0.5514   -1.8009 C   0  0  0  0  0  0  0  0  0  0  0  0
   -0.0898    1.3079   -2.7283 C   0  0  0  0  0  0  0  0  0  0  0  0
    1.2998   -0.3002    2.5393 H   0  0  0  0  0  0  0  0  0  0  0  0
    0.4612    1.2246    0.7156 H   0  0  0  0  0  0  0  0  0  0  0  0
    0.0703   -1.3820   -0.9323 H   0  0  0  0  0  0  0  0  0  0  0  0
   -0.0181    1.9718   -3.5569 H   0  0  0  0  0  0  0  0  0  0  0  0
  9 13  1  0
  8  9  3  0
  4 12  1  0
  4  8  1  0
  4  5  1  0
  3  4  1  0
  1  2  2  0
  5  6  1  0
  2  3  1  0
  2 10  1  0
  3 11  1  0
  3  6  1  0
  6  7  2  0
M  END
$$$$

     RDKit          3D

 25 25  0  0  0  0  0  0  0  0999 V2000
   -0.1078    1.6892    1.7621 C   0  0  0  0  0  0  0  0  0  0  0  0
    1.2012    1.2299    1.1777 C   0  0  0  0  0  0  0  0  0  0  0  0
    1.1380    1.0741   -0.3041 C   0  0  0  0  0  0  0  0  0  0  0  0
    1.3731   -0.3591   -0.9078 C   0  0  0  0  0  0  0  0  0  0  0  0
    0.1282   -1.1096   -1.4982 C   0  0  0  0  0  0  0  0  0  0  0  0
   -0.5030   -2.0862   -0.5153 C   0  0  0  0  0  0  0  0  0  0  0  0
   -1.4312   -1.1359    0.2336 C   0  0  0  0  0  0  0  0  0  0  0  0
   -1.7643   -0.0763   -0.7169 C   0  0  0  0  0  0  0  0  0  0  0  0
   -0.9702   -0.2884   -1.9157 O   0  0  0  0  0  0  0  0  0  0  0  0
    0.1455    2.0488    2.7888 H   0  0  0  0  0  0  0  0  0  0  0  0
   -0.6162    2.4599    1.2510 H   0  0  0  0  0  0  0  0  0  0  0  0
   -0.7322    0.8290    2.0745 H   0  0  0  0  0  0  0  0  0  0  0  0
    2.0640    1.9568    1.4298 H   0  0  0  0  0  0  0  0  0  0  0  0
    1.5394    0.1506    1.6364 H   0  0  0  0  0  0  0  0  0  0  0  0
    0.3237    1.6259   -0.8498 H   0  0  0  0  0  0  0  0  0  0  0  0
    1.9893    1.6232   -0.6925 H   0  0  0  0  0  0  0  0  0  0  0  0
    1.9684   -1.0465   -0.2939 H   0  0  0  0  0  0  0  0  0  0  0  0
    2.0306   -0.1827   -1.7810 H   0  0  0  0  0  0  0  0  0  0  0  0
    0.4634   -1.7030   -2.3362 H   0  0  0  0  0  0  0  0  0  0  0  0
   -1.1128   -2.8142   -0.9849 H   0  0  0  0  0  0  0  0  0  0  0  0
    0.2385   -2.4198    0.0954 H   0  0  0  0  0  0  0  0  0  0  0  0
   -0.6569   -0.8198    0.9286 H   0  0  0  0  0  0  0  0  0  0  0  0
   -2.3065   -1.5241    0.7238 H   0  0  0  0  0  0  0  0  0  0  0  0
   -1.5409    0.9701   -0.3621 H   0  0  0  0  0  0  0  0  0  0  0  0
   -2.8613   -0.0919   -0.9432 H   0  0  0  0  0  0  0  0  0  0  0  0
  2 14  1  0
  1 11  1  0
  1 10  1  0
  1  2  1  0
  1 12  1  0
  2 13  1  0
  2  3  1  0
  4 18  1  0
  3 15  1  0
  3  4  1  0
  3 16  1  0
  4 17  1  0
  4  5  1  0
  6 21  1  0
  8 25  1  0
  5  9  1  0
  8  9  1  0
  5  6  1  0
  5 19  1  0
  6 20  1  0
  6  7  1  0
  7  8  1  0
  8 24  1  0
  7 23  1  0
  7 22  1  0
M  END
$$$$

     RDKit          3D

 20 20  0  0  0  0  0  0  0  0999 V2000
    0.3976   -0.2309   -2.8738 C   0  0  0  0  0  0  0  0  0  0  0  0
    0.1375    0.3248   -1.4888 C   0  0  0  0  0  0  0  0  0  0  0  0
    0.7869   -0.5453   -0.4519 C   0  0  0  0  0  0  0  0  0  0  0  0
    1.9201   -0.0357    0.3103 N   0  0  0  0  0  0  0  0  0  0  0  0
    0.6805   -0.2568    1.0392 C   0  0  0  0  0  0  0  0  0  0  0  0
   -0.1844    0.8598    1.5339 C   0  0  0  0  0  0  0  0  0  0  0  0
   -1.5529    0.4731    1.2922 O   0  0  0  0  0  0  0  0  0  0  0  0
   -2.1649   -0.0434    2.3742 C   0  0  0  0  0  0  0  0  0  0  0  0
   -2.7547   -1.1199    2.3837 O   0  0  0  0  0  0  0  0  0  0  0  0
   -0.0938   -1.2102   -2.9903 H   0  0  0  0  0  0  0  0  0  0  0  0
   -0.0043    0.4244   -3.6427 H   0  0  0  0  0  0  0  0  0  0  0  0
    1.4612   -0.3519   -3.0469 H   0  0  0  0  0  0  0  0  0  0  0  0
   -0.9625    0.3681   -1.3252 H   0  0  0  0  0  0  0  0  0  0  0  0
    0.5166    1.3536   -1.4246 H   0  0  0  0  0  0  0  0  0  0  0  0
    0.6797   -1.6110   -0.6778 H   0  0  0  0  0  0  0  0  0  0  0  0
    2.5833   -0.7998    0.4766 H   0  0  0  0  0  0  0  0  0  0  0  0
    0.6630   -1.1074    1.7025 H   0  0  0  0  0  0  0  0  0  0  0  0
    0.0001    1.7854    0.9747 H   0  0  0  0  0  0  0  0  0  0  0  0
   -0.0010    1.0938    2.5898 H   0  0  0  0  0  0  0  0  0  0  0  0
   -2.1079    0.6293    3.2450 H   0  0  0  0  0  0  0  0  0  0  0  0
  5 17  1  0
  3 15  1  0
  4 16  1  0
  3  5  1  0
  4  5  1  0
  5  6  1  0
  3  4  1  0
  2  3  1  0
  6 19  1  0
  6  7  1  0
  7  8  1  0
  1 11  1  0
  6 18  1  0
  2 14  1  0
  8  9  2  0
  1  2  1  0
  2 13  1  0
  8 20  1  0
  1 10  1  0
  1 12  1  0
M  END
$$$$

     RDKit          3D

 17 17  0  0  0  0  0  0  0  0999 V2000
    1.2046    1.0987    2.0314 O   0  0  0  0  0  0  0  0  0  0  0  0
    1.6435    0.5994    0.7768 C   0  0  0  0  0  0  0  0  0  0  0  0
    0.4760    0.4498   -0.1566 C   0  0  0  0  0  0  0  0  0  0  0  0
   -0.6404   -0.4519    0.3098 C   0  0  0  0  0  0  0  0  0  0  0  0
   -1.7563   -0.4079   -0.5987 O   0  0  0  0  0  0  0  0  0  0  0  0
   -2.6574   -1.3971   -0.4114 C   0  0  0  0  0  0  0  0  0  0  0  0
   -2.5734   -2.3296    0.3788 O   0  0  0  0  0  0  0  0  0  0  0  0
    0.7080    0.6578   -1.6435 C   0  0  0  0  0  0  0  0  0  0  0  0
    0.0714    1.6615   -0.8284 O   0  0  0  0  0  0  0  0  0  0  0  0
    1.9697    1.0694    2.6376 H   0  0  0  0  0  0  0  0  0  0  0  0
    2.3947    1.2876    0.3770 H   0  0  0  0  0  0  0  0  0  0  0  0
    2.1103   -0.3762    0.9446 H   0  0  0  0  0  0  0  0  0  0  0  0
   -0.2498   -1.4736    0.3706 H   0  0  0  0  0  0  0  0  0  0  0  0
   -0.9956   -0.1365    1.2990 H   0  0  0  0  0  0  0  0  0  0  0  0
   -3.4952   -1.2587   -1.1125 H   0  0  0  0  0  0  0  0  0  0  0  0
    0.0922    0.1256   -2.3643 H   0  0  0  0  0  0  0  0  0  0  0  0
    1.6976    0.8817   -2.0101 H   0  0  0  0  0  0  0  0  0  0  0  0
  4 13  1  0
  4  5  1  0
  5  6  1  0
  4 14  1  0
  3  4  1  0
  2 11  1  0
  6  7  2  0
  6 15  1  0
  1 10  1  0
  2  3  1  0
  3  8  1  0
  3  9  1  0
  1  2  1  0
  2 12  1  0
  8 16  1  0
  8 17  1  0
  8  9  1  0
M  END
$$$$

     RDKit          3D

 16 16  0  0  0  0  0  0  0  0999 V2000
    2.0078    2.4300   -0.9374 N   0  0  0  0  0  0  0  0  0  0  0  0
    1.6463    1.2282   -0.2166 C   0  0  0  0  0  0  0  0  0  0  0  0
    0.8113    0.4043   -1.0167 O   0  0  0  0  0  0  0  0  0  0  0  0
    0.8215   -0.9301   -0.5330 C   0  0  0  0  0  0  0  0  0  0  0  0
    0.0912   -1.1204    0.7820 C   0  0  0  0  0  0  0  0  0  0  0  0
    0.6017   -1.6894    1.7429 O   0  0  0  0  0  0  0  0  0  0  0  0
   -1.2718   -0.5478    0.9063 C   0  0  0  0  0  0  0  0  0  0  0  0
   -2.1631   -0.2262   -0.2625 C   0  0  0  0  0  0  0  0  0  0  0  0
   -2.3230   -1.4357    0.4841 O   0  0  0  0  0  0  0  0  0  0  0  0
    2.6251    2.9902   -0.3531 H   0  0  0  0  0  0  0  0  0  0  0  0
    1.0992    1.4977    0.6949 H   0  0  0  0  0  0  0  0  0  0  0  0
    0.3296   -1.5592   -1.2840 H   0  0  0  0  0  0  0  0  0  0  0  0
    1.8557   -1.2815   -0.4239 H   0  0  0  0  0  0  0  0  0  0  0  0
   -1.4374   -0.0014    1.8239 H   0  0  0  0  0  0  0  0  0  0  0  0
   -1.7909   -0.3057   -1.2777 H   0  0  0  0  0  0  0  0  0  0  0  0
   -2.9032    0.5471   -0.1291 H   0  0  0  0  0  0  0  0  0  0  0  0
  4 13  1  0
  4 12  1  0
  4  5  1  0
  3  4  1  0
  5  6  2  0
  5  7  1  0
  2  3  1  0
  2 11  1  0
  1  2  1  0
  7 14  1  0
  7  9  1  0
  7  8  1  0
  8  9  1  0
  1 10  1  0
  8 16  1  0
  8 15  1  0
M  END
$$$$

     RDKit          3D

 21 22  0  0  0  0  0  0  0  0999 V2000
   -2.5389    2.2778   -0.5721 O   0  0  0  0  0  0  0  0  0  0  0  0
   -2.0148    0.9084   -0.5777 C   0  0  0  0  0  0  0  0  0  0  0  0
   -0.7077    0.6769   -1.2318 C   0  0  0  0  0  0  0  0  0  0  0  0
   -0.0563   -0.2795   -0.1919 C   0  0  0  0  0  0  0  0  0  0  0  0
   -1.3377    0.3529    0.6747 C   0  0  0  0  0  0  0  0  0  0  0  0
    1.4256    0.3661   -0.1193 C   0  0  0  0  0  0  0  0  0  0  0  0
    2.1944   -1.0252    0.0569 C   0  0  0  0  0  0  0  0  0  0  0  0
    1.3628   -1.8569    1.0652 C   0  0  0  0  0  0  0  0  0  0  0  0
   -0.0640   -1.3731    0.8319 O   0  0  0  0  0  0  0  0  0  0  0  0
   -3.4409    2.2853   -0.2989 H   0  0  0  0  0  0  0  0  0  0  0  0
   -2.8332    0.3723   -1.1337 H   0  0  0  0  0  0  0  0  0  0  0  0
   -0.0732    1.6163   -1.1124 H   0  0  0  0  0  0  0  0  0  0  0  0
   -0.6264    0.3811   -2.3266 H   0  0  0  0  0  0  0  0  0  0  0  0
   -2.1387   -0.1812    1.1580 H   0  0  0  0  0  0  0  0  0  0  0  0
   -0.7996    0.9767    1.4290 H   0  0  0  0  0  0  0  0  0  0  0  0
    1.6187    0.8493   -0.9607 H   0  0  0  0  0  0  0  0  0  0  0  0
    1.6654    0.8945    0.8631 H   0  0  0  0  0  0  0  0  0  0  0  0
    3.1568   -0.8089    0.4401 H   0  0  0  0  0  0  0  0  0  0  0  0
    2.4171   -1.7414   -0.9786 H   0  0  0  0  0  0  0  0  0  0  0  0
    1.2178   -2.9354    0.8352 H   0  0  0  0  0  0  0  0  0  0  0  0
    1.5727   -1.7559    2.1496 H   0  0  0  0  0  0  0  0  0  0  0  0
  1 10  1  0
  1  2  1  0
  5 15  1  0
  2 11  1  0
  5 14  1  0
  2  5  1  0
  2  3  1  0
  4  5  1  0
  6 16  1  0
  3  4  1  0
  3 13  1  0
  3 12  1  0
  4  6  1  0
  4  9  1  0
  6 17  1  0
  6  7  1  0
  8  9  1  0
  8 20  1  0
  7  8  1  0
  8 21  1  0
  7 18  1  0
  7 19  1  0
M  END
$$$$

     RDKit          3D

 17 16  0  0  0  0  0  0  0  0999 V2000
    2.1274    0.9772    0.3231 O   0  0  0  0  0  0  0  0  0  0  0  0
    1.5947   -0.3291    0.2354 C   0  0  0  0  0  0  0  0  0  0  0  0
    0.4137   -0.4904    1.1834 C   0  0  0  0  0  0  0  0  0  0  0  0
   -0.8723    0.2689    0.8088 C   0  0  0  0  0  0  0  0  0  0  0  0
   -0.6520    1.6451    0.5692 O   0  0  0  0  0  0  0  0  0  0  0  0
   -1.6209   -0.4788   -0.2970 C   0  0  0  0  0  0  0  0  0  0  0  0
   -2.4509   -1.3470   -0.0607 O   0  0  0  0  0  0  0  0  0  0  0  0
   -1.2950   -0.1923   -1.6730 C   0  0  0  0  0  0  0  0  0  0  0  0
   -1.0568   -0.0497   -2.8337 C   0  0  0  0  0  0  0  0  0  0  0  0
    3.0931    0.9128    0.4307 H   0  0  0  0  0  0  0  0  0  0  0  0
    1.3239   -0.5363   -0.7987 H   0  0  0  0  0  0  0  0  0  0  0  0
    2.3819   -1.0381    0.5106 H   0  0  0  0  0  0  0  0  0  0  0  0
    0.7347   -0.1418    2.1714 H   0  0  0  0  0  0  0  0  0  0  0  0
    0.1771   -1.5589    1.2587 H   0  0  0  0  0  0  0  0  0  0  0  0
   -1.5239    0.2244    1.6972 H   0  0  0  0  0  0  0  0  0  0  0  0
   -1.5072    2.0594    0.3467 H   0  0  0  0  0  0  0  0  0  0  0  0
   -0.8676    0.0746   -3.8722 H   0  0  0  0  0  0  0  0  0  0  0  0
  9 17  1  0
  8  9  3  0
  6  8  1  0
  3 14  1  0
  2 11  1  0
  4 15  1  0
  1 10  1  0
  1  2  1  0
  2  3  1  0
  3  4  1  0
  3 13  1  0
  4  6  1  0
  6  7  2  0
  2 12  1  0
  4  5  1  0
  5 16  1  0
M  END
$$$$

     RDKit          3D

 22 22  0  0  0  0  0  0  0  0999 V2000
    1.4755   -0.8376   -1.2459 C   0  0  0  0  0  0  0  0  0  0  0  0
    0.2659   -1.5725   -0.9664 C   0  0  0  0  0  0  0  0  0  0  0  0
   -0.3855   -1.9887    0.3211 C   0  0  0  0  0  0  0  0  0  0  0  0
   -1.1137   -0.9228   -0.3778 C   0  0  0  0  0  0  0  0  0  0  0  0
   -1.2081    0.5762    0.1188 C   0  0  0  0  0  0  0  0  0  0  0  0
   -0.0564    1.3699    0.6091 C   0  0  0  0  0  0  0  0  0  0  0  0
    0.5620    2.4612   -0.1461 C   0  0  0  0  0  0  0  0  0  0  0  0
    0.4710    0.9408    1.6322 N   0  0  0  0  0  0  0  0  0  0  0  0
   -0.5183    0.2877    2.4768 O   0  0  0  0  0  0  0  0  0  0  0  0
    1.5938   -0.6979   -2.4171 H   0  0  0  0  0  0  0  0  0  0  0  0
    1.4268    0.1563   -0.9787 H   0  0  0  0  0  0  0  0  0  0  0  0
    2.1617   -1.3442   -0.4375 H   0  0  0  0  0  0  0  0  0  0  0  0
   -0.2226   -2.1656   -1.8349 H   0  0  0  0  0  0  0  0  0  0  0  0
    0.1242   -1.8479    1.2709 H   0  0  0  0  0  0  0  0  0  0  0  0
   -0.6272   -3.0546    0.3832 H   0  0  0  0  0  0  0  0  0  0  0  0
   -2.1150   -1.1391   -0.7672 H   0  0  0  0  0  0  0  0  0  0  0  0
   -1.6216    1.1016   -0.7519 H   0  0  0  0  0  0  0  0  0  0  0  0
   -2.0389    0.7049    0.9083 H   0  0  0  0  0  0  0  0  0  0  0  0
    1.4898    2.6466    0.2022 H   0  0  0  0  0  0  0  0  0  0  0  0
    0.5003    2.2033   -1.1894 H   0  0  0  0  0  0  0  0  0  0  0  0
   -0.0078    3.3811    0.0187 H   0  0  0  0  0  0  0  0  0  0  0  0
   -0.1558   -0.2588    3.1717 H   0  0  0  0  0  0  0  0  0  0  0  0
  1 11  1  0
  2 13  1  0
  3 14  1  0
  1  2  1  0
  1 12  1  0
  1 10  1  0
  2  3  1  0
  2  4  1  0
  3 15  1  0
  3  4  1  0
  4 16  1  0
  4  5  1  0
  5 17  1  0
  5 18  1  0
  5  6  1  0
  6  8  2  3
  6  7  1  0
  8  9  1  0
  7 19  1  0
  7 21  1  0
  7 20  1  0
  9 22  1  0
M  END
$$$$

     RDKit          3D

 15 16  0  0  0  0  0  0  0  0999 V2000
    1.5505   -1.3205   -0.4281 O   0  0  0  0  0  0  0  0  0  0  0  0
    0.8318   -0.6729    0.6467 C   0  0  0  0  0  0  0  0  0  0  0  0
    0.4816    0.8439    0.4962 C   0  0  0  0  0  0  0  0  0  0  0  0
   -0.2293    1.0251   -0.8402 C   0  0  0  0  0  0  0  0  0  0  0  0
   -1.2411   -0.1060   -0.6699 C   0  0  0  0  0  0  0  0  0  0  0  0
   -0.7442   -0.6765    0.6265 C   0  0  0  0  0  0  0  0  0  0  0  0
   -0.5998    0.5785    1.4920 O   0  0  0  0  0  0  0  0  0  0  0  0
    2.4981   -1.2412   -0.1921 H   0  0  0  0  0  0  0  0  0  0  0  0
    1.2591   -0.9724    1.6188 H   0  0  0  0  0  0  0  0  0  0  0  0
    1.1955    1.6056    0.8349 H   0  0  0  0  0  0  0  0  0  0  0  0
   -0.7054    2.0101   -0.9561 H   0  0  0  0  0  0  0  0  0  0  0  0
    0.4629    0.8349   -1.6670 H   0  0  0  0  0  0  0  0  0  0  0  0
   -2.2403    0.3026   -0.5485 H   0  0  0  0  0  0  0  0  0  0  0  0
   -1.2427   -0.7462   -1.5706 H   0  0  0  0  0  0  0  0  0  0  0  0
   -1.2769   -1.4650    1.1573 H   0  0  0  0  0  0  0  0  0  0  0  0
  6 15  1  0
  2  9  1  0
  1  8  1  0
  1  2  1  0
  2  6  1  0
  2  3  1  0
  6  7  1  0
  5  6  1  0
  3  7  1  0
  5 14  1  0
  5 13  1  0
  4  5  1  0
  3 10  1  0
  3  4  1  0
  4 12  1  0
  4 11  1  0
M  END
$$$$

     RDKit          3D

 15 17  0  0  0  0  0  0  0  0999 V2000
   -0.1118   -0.0156    2.2882 O   0  0  0  0  0  0  0  0  0  0  0  0
   -0.1891   -0.1682    0.8733 C   0  0  0  0  0  0  0  0  0  0  0  0
   -1.5347   -0.4856    0.2472 C   0  0  0  0  0  0  0  0  0  0  0  0
   -1.4826    0.0762   -1.1044 O   0  0  0  0  0  0  0  0  0  0  0  0
   -0.1606    0.6871   -1.2994 C   0  0  0  0  0  0  0  0  0  0  0  0
    0.3940    0.9033    0.0495 C   0  0  0  0  0  0  0  0  0  0  0  0
    1.0908   -0.4138    0.0590 C   0  0  0  0  0  0  0  0  0  0  0  0
    1.0131   -0.3965   -1.4108 C   0  0  0  0  0  0  0  0  0  0  0  0
    1.6646   -1.0504   -2.1902 O   0  0  0  0  0  0  0  0  0  0  0  0
    0.6785   -0.4463    2.6590 H   0  0  0  0  0  0  0  0  0  0  0  0
   -2.3525    0.0150    0.7808 H   0  0  0  0  0  0  0  0  0  0  0  0
   -1.7063   -1.5657    0.1770 H   0  0  0  0  0  0  0  0  0  0  0  0
   -0.1520    1.4961   -2.0270 H   0  0  0  0  0  0  0  0  0  0  0  0
    0.7908    1.8485    0.3656 H   0  0  0  0  0  0  0  0  0  0  0  0
    2.0579   -0.4841    0.5323 H   0  0  0  0  0  0  0  0  0  0  0  0
  3 11  1  0
  3  4  1  0
  4  5  1  0
  3 12  1  0
  2  3  1  0
  5 13  1  0
  5  6  1  0
  5  8  1  0
  6 14  1  0
  1  2  1  0
  2  6  1  0
  2  7  1  0
  1 10  1  0
  6  7  1  0
  7  8  1  0
  8  9  2  0
  7 15  1  0
M  END
$$$$

     RDKit          3D

 19 21  0  0  0  0  0  0  0  0999 V2000
    2.2060   -0.4120    0.9075 O   0  0  0  0  0  0  0  0  0  0  0  0
    0.8790   -0.2565    0.4462 C   0  0  0  0  0  0  0  0  0  0  0  0
   -0.1940   -1.2651    0.6306 C   0  0  0  0  0  0  0  0  0  0  0  0
   -0.3514   -1.2712   -0.8740 C   0  0  0  0  0  0  0  0  0  0  0  0
    0.6622   -0.0586   -1.0729 C   0  0  0  0  0  0  0  0  0  0  0  0
    0.3514    1.4304   -1.1068 C   0  0  0  0  0  0  0  0  0  0  0  0
   -0.4160    1.8307    0.1407 C   0  0  0  0  0  0  0  0  0  0  0  0
    0.0219    0.8363    1.2002 C   0  0  0  0  0  0  0  0  0  0  0  0
   -1.0633   -0.2249    1.3689 C   0  0  0  0  0  0  0  0  0  0  0  0
    2.2116   -0.1296    1.8426 H   0  0  0  0  0  0  0  0  0  0  0  0
    0.0843   -2.2355    1.0655 H   0  0  0  0  0  0  0  0  0  0  0  0
   -1.3771   -0.9918   -1.2583 H   0  0  0  0  0  0  0  0  0  0  0  0
    0.0766   -2.1355   -1.3452 H   0  0  0  0  0  0  0  0  0  0  0  0
    0.8664   -0.3175   -2.1508 H   0  0  0  0  0  0  0  0  0  0  0  0
   -0.3233    1.6785   -1.9441 H   0  0  0  0  0  0  0  0  0  0  0  0
    1.2384    2.0833   -1.2386 H   0  0  0  0  0  0  0  0  0  0  0  0
   -1.5364    1.8753   -0.0228 H   0  0  0  0  0  0  0  0  0  0  0  0
   -2.0669    0.0128    0.9968 H   0  0  0  0  0  0  0  0  0  0  0  0
   -1.2693   -0.4491    2.4146 H   0  0  0  0  0  0  0  0  0  0  0  0
  5 14  1  0
  4 13  1  0
  4  5  1  0
  5  6  1  0
  2  5  1  0
  6 16  1  0
  6 15  1  0
  4 12  1  0
  3  4  1  0
  6  7  1  0
  1  2  1  0
  1 10  1  0
  2  3  1  0
  2  8  1  0
  3 11  1  0
  3  9  1  0
  7  8  1  0
  7 17  1  0
  8  9  1  0
  9 19  1  0
  9 18  1  0
M  END
$$$$

     RDKit          3D

 19 20  0  0  0  0  0  0  0  0999 V2000
   -0.7112   -1.7197   -1.4457 C   0  0  0  0  0  0  0  0  0  0  0  0
   -0.5228   -0.7756   -0.2687 C   0  0  0  0  0  0  0  0  0  0  0  0
    0.9843   -0.3762    0.0467 C   0  0  0  0  0  0  0  0  0  0  0  0
    1.1698    0.2219    1.4481 C   0  0  0  0  0  0  0  0  0  0  0  0
    0.0893    1.2524    1.6963 C   0  0  0  0  0  0  0  0  0  0  0  0
   -0.8498    1.5282    0.7691 C   0  0  0  0  0  0  0  0  0  0  0  0
   -0.7807    0.7709   -0.5140 C   0  0  0  0  0  0  0  0  0  0  0  0
    0.7304    0.7656   -1.0330 C   0  0  0  0  0  0  0  0  0  0  0  0
    1.3777    1.3442   -1.8780 O   0  0  0  0  0  0  0  0  0  0  0  0
   -1.7324   -1.6422   -1.8479 H   0  0  0  0  0  0  0  0  0  0  0  0
   -0.5453   -2.7578   -1.1293 H   0  0  0  0  0  0  0  0  0  0  0  0
   -0.0086   -1.5056   -2.2646 H   0  0  0  0  0  0  0  0  0  0  0  0
   -1.0789   -1.1801    0.5872 H   0  0  0  0  0  0  0  0  0  0  0  0
    1.7368   -1.1172   -0.2323 H   0  0  0  0  0  0  0  0  0  0  0  0
    2.1533    0.6958    1.5213 H   0  0  0  0  0  0  0  0  0  0  0  0
    1.1003   -0.5669    2.2047 H   0  0  0  0  0  0  0  0  0  0  0  0
    0.0728    1.7696    2.6527 H   0  0  0  0  0  0  0  0  0  0  0  0
   -1.6345    2.2576    0.9276 H   0  0  0  0  0  0  0  0  0  0  0  0
   -1.5504    1.0351   -1.2404 H   0  0  0  0  0  0  0  0  0  0  0  0
  4 15  1  0
  4 16  1  0
  3 14  1  0
  3  4  1  0
  4  5  1  0
  3  8  1  0
  2  3  1  0
  1 11  1  0
  5 17  1  0
  5  6  2  0
  8  9  2  0
  7  8  1  0
  1 10  1  0
  1  2  1  0
  2 13  1  0
  2  7  1  0
  1 12  1  0
  6  7  1  0
  6 18  1  0
  7 19  1  0
M  END
$$$$

     RDKit          3D

 16 16  0  0  0  0  0  0  0  0999 V2000
   -0.6984    0.6425    2.0449 C   0  0  0  0  0  0  0  0  0  0  0  0
   -0.0137    1.0954    0.7649 C   0  0  0  0  0  0  0  0  0  0  0  0
    0.1260    0.0371   -0.2739 C   0  0  0  0  0  0  0  0  0  0  0  0
    0.7217    0.0660   -1.5120 C   0  0  0  0  0  0  0  0  0  0  0  0
    1.3220    1.1414   -2.0210 O   0  0  0  0  0  0  0  0  0  0  0  0
    0.6324   -1.1219   -2.1643 N   0  0  0  0  0  0  0  0  0  0  0  0
   -0.0221   -1.9023   -1.3353 C   0  0  0  0  0  0  0  0  0  0  0  0
   -0.3517   -1.2482   -0.1799 N   0  0  0  0  0  0  0  0  0  0  0  0
   -1.7202    0.2998    1.8508 H   0  0  0  0  0  0  0  0  0  0  0  0
   -0.1489   -0.1753    2.5235 H   0  0  0  0  0  0  0  0  0  0  0  0
   -0.7530    1.4725    2.7569 H   0  0  0  0  0  0  0  0  0  0  0  0
    0.9835    1.4770    1.0157 H   0  0  0  0  0  0  0  0  0  0  0  0
   -0.5775    1.9347    0.3401 H   0  0  0  0  0  0  0  0  0  0  0  0
    1.6414    0.8672   -2.8974 H   0  0  0  0  0  0  0  0  0  0  0  0
   -0.2854   -2.9367   -1.5108 H   0  0  0  0  0  0  0  0  0  0  0  0
   -0.8561   -1.6493    0.5980 H   0  0  0  0  0  0  0  0  0  0  0  0
  5 14  1  0
  4  5  1  0
  4  6  1  0
  3  4  2  0
  2 12  1  0
  6  7  2  0
  1 10  1  0
  2  3  1  0
  3  8  1  0
  1  2  1  0
  2 13  1  0
  1  9  1  0
  1 11  1  0
  7  8  1  0
  7 15  1  0
  8 16  1  0
M  END
$$$$

     RDKit          3D

 18 19  0  0  0  0  0  0  0  0999 V2000
    1.0893    0.6754    3.2030 O   0  0  0  0  0  0  0  0  0  0  0  0
    1.1178    1.5120    2.0097 N   0  0  0  0  0  0  0  0  0  0  0  0
    0.1068    0.9431    1.1120 C   0  0  0  0  0  0  0  0  0  0  0  0
    0.4855    1.2836   -0.3433 C   0  0  0  0  0  0  0  0  0  0  0  0
    0.0272   -0.1024   -0.6096 C   0  0  0  0  0  0  0  0  0  0  0  0
    0.1605   -0.8895   -1.8691 C   0  0  0  0  0  0  0  0  0  0  0  0
   -1.2036   -0.4729   -1.3759 C   0  0  0  0  0  0  0  0  0  0  0  0
   -2.0156   -1.5322   -0.8530 O   0  0  0  0  0  0  0  0  0  0  0  0
    0.3994   -0.5326    0.7612 C   0  0  0  0  0  0  0  0  0  0  0  0
    0.3045    1.0200    3.6729 H   0  0  0  0  0  0  0  0  0  0  0  0
   -0.1023    2.0865   -0.7960 H   0  0  0  0  0  0  0  0  0  0  0  0
    1.5507    1.4556   -0.5528 H   0  0  0  0  0  0  0  0  0  0  0  0
    0.5571   -0.4033   -2.7517 H   0  0  0  0  0  0  0  0  0  0  0  0
    0.4262   -1.9399   -1.8004 H   0  0  0  0  0  0  0  0  0  0  0  0
   -1.7021    0.3150   -1.9323 H   0  0  0  0  0  0  0  0  0  0  0  0
   -2.3918   -1.2878    0.0122 H   0  0  0  0  0  0  0  0  0  0  0  0
   -0.2458   -1.2603    1.2567 H   0  0  0  0  0  0  0  0  0  0  0  0
    1.4363   -0.8702    0.8563 H   0  0  0  0  0  0  0  0  0  0  0  0
  8 16  1  0
  7  8  1  0
  7 15  1  0
  5  7  1  0
  6  7  1  0
  4 12  1  0
  9 17  1  0
  5  6  1  0
  4  5  1  0
  5  9  1  0
  6 14  1  0
  6 13  1  0
  3  4  1  0
  4 11  1  0
  3  9  1  0
  9 18  1  0
  2  3  1  0
  1  2  1  0
  1 10  1  0
M  END
$$$$

     RDKit          3D

 18 19  0  0  0  0  0  0  0  0999 V2000
    1.5614    1.0094    0.7262 C   0  0  0  0  0  0  0  0  0  0  0  0
    0.4233    0.1246    0.3153 C   0  0  0  0  0  0  0  0  0  0  0  0
   -0.9494    0.6308    0.5753 N   0  0  0  0  0  0  0  0  0  0  0  0
   -1.7012    0.3176   -0.6477 C   0  0  0  0  0  0  0  0  0  0  0  0
   -2.1279    1.5766   -1.2123 N   0  0  0  0  0  0  0  0  0  0  0  0
   -0.8989   -0.4086   -1.5775 O   0  0  0  0  0  0  0  0  0  0  0  0
    0.4355   -0.5204   -1.0417 C   0  0  0  0  0  0  0  0  0  0  0  0
    0.6609   -1.3726    0.1834 C   0  0  0  0  0  0  0  0  0  0  0  0
   -0.3635   -2.3158    0.6713 N   0  0  0  0  0  0  0  0  0  0  0  0
    1.5854    1.1023    1.8192 H   0  0  0  0  0  0  0  0  0  0  0  0
    2.5240    0.6101    0.3955 H   0  0  0  0  0  0  0  0  0  0  0  0
    1.4565    2.0069    0.2886 H   0  0  0  0  0  0  0  0  0  0  0  0
   -1.4816    2.2770   -0.8314 H   0  0  0  0  0  0  0  0  0  0  0  0
   -3.0429    1.7847   -0.8101 H   0  0  0  0  0  0  0  0  0  0  0  0
    1.2770   -0.3320   -1.7032 H   0  0  0  0  0  0  0  0  0  0  0  0
    1.6826   -1.7291    0.3030 H   0  0  0  0  0  0  0  0  0  0  0  0
   -1.0826   -1.7989    1.1898 H   0  0  0  0  0  0  0  0  0  0  0  0
    0.0414   -2.9627    1.3563 H   0  0  0  0  0  0  0  0  0  0  0  0
  9 18  1  0
  9 17  1  0
  8  9  1  0
  1 11  1  0
  8 16  1  0
  2  8  1  0
  7  8  1  0
  2  3  1  0
  3  4  1  0
  1  2  1  0
  1 10  1  0
  1 12  1  0
  2  7  1  0
  5 13  1  0
  4  5  1  0
  4  6  1  0
  5 14  1  0
  6  7  1  0
  7 15  1  0
M  END
$$$$

     RDKit          3D

 15 15  0  0  0  0  0  0  0  0999 V2000
    1.5087    2.4406    1.4913 O   0  0  0  0  0  0  0  0  0  0  0  0
    1.7874    1.6024    0.6494 C   0  0  0  0  0  0  0  0  0  0  0  0
    2.9698    1.5350   -0.0082 O   0  0  0  0  0  0  0  0  0  0  0  0
    0.8725    0.5320    0.2372 C   0  0  0  0  0  0  0  0  0  0  0  0
    1.1136   -0.4881   -0.5943 C   0  0  0  0  0  0  0  0  0  0  0  0
    0.0130   -1.3066   -0.7510 N   0  0  0  0  0  0  0  0  0  0  0  0
   -1.0505   -0.8823    0.1446 C   0  0  0  0  0  0  0  0  0  0  0  0
   -2.3731   -0.7574   -0.4158 N   0  0  0  0  0  0  0  0  0  0  0  0
   -2.6236   -1.6533   -0.8202 H   0  0  0  0  0  0  0  0  0  0  0  0
   -2.2878   -0.1246   -1.2122 H   0  0  0  0  0  0  0  0  0  0  0  0
   -0.5300    0.4432    0.7691 C   0  0  0  0  0  0  0  0  0  0  0  0
    2.0375   -0.7339   -1.1050 H   0  0  0  0  0  0  0  0  0  0  0  0
    0.2281   -2.3026   -0.7148 H   0  0  0  0  0  0  0  0  0  0  0  0
   -1.1091    1.3248    0.4645 H   0  0  0  0  0  0  0  0  0  0  0  0
   -0.5563    0.3707    1.8655 H   0  0  0  0  0  0  0  0  0  0  0  0
 11 15  1  0
  2  3  1  0
  1  2  2  0
  2  4  1  0
  4 11  1  0
  4  5  2  0
  7 11  1  0
 11 14  1  0
  5 12  1  0
  5  6  1  0
  6  7  1  0
  7  8  1  0
  6 13  1  0
  8 10  1  0
  8  9  1  0
M  END
$$$$

     RDKit          3D

 15 17  0  0  0  0  0  0  0  0999 V2000
    0.5411   -0.4731   -3.0372 O   0  0  0  0  0  0  0  0  0  0  0  0
    0.2031   -0.1631   -1.8993 C   0  0  0  0  0  0  0  0  0  0  0  0
   -1.0941   -0.3084   -1.4359 O   0  0  0  0  0  0  0  0  0  0  0  0
   -1.1486    0.1072   -0.0469 C   0  0  0  0  0  0  0  0  0  0  0  0
   -0.7109   -0.9386    1.0105 C   0  0  0  0  0  0  0  0  0  0  0  0
    0.6278   -0.1967    1.1577 C   0  0  0  0  0  0  0  0  0  0  0  0
    1.6777   -0.4450    0.1895 O   0  0  0  0  0  0  0  0  0  0  0  0
    1.0708    0.4993   -0.7504 C   0  0  0  0  0  0  0  0  0  0  0  0
    0.0827    0.9361    0.3328 C   0  0  0  0  0  0  0  0  0  0  0  0
   -2.0815    0.6214    0.1775 H   0  0  0  0  0  0  0  0  0  0  0  0
   -1.3437   -0.9549    1.9091 H   0  0  0  0  0  0  0  0  0  0  0  0
   -0.6115   -1.9561    0.6403 H   0  0  0  0  0  0  0  0  0  0  0  0
    0.9883    0.0488    2.1551 H   0  0  0  0  0  0  0  0  0  0  0  0
    1.7810    1.2572   -1.0866 H   0  0  0  0  0  0  0  0  0  0  0  0
    0.0177    1.9660    0.6839 H   0  0  0  0  0  0  0  0  0  0  0  0
  9 15  1  0
  8 14  1  0
  1  2  2  0
  2  8  1  0
  2  3  1  0
  8  9  1  0
  7  8  1  0
  4  9  1  0
  6  9  1  0
  4 10  1  0
  3  4  1  0
  4  5  1  0
  6  7  1  0
  5  6  1  0
  6 13  1  0
  5 11  1  0
  5 12  1  0
M  END
$$$$

     RDKit          3D

 16 16  0  0  0  0  0  0  0  0999 V2000
   -0.2255    1.2057   -2.3046 C   0  0  0  0  0  0  0  0  0  0  0  0
   -0.3048    0.2467   -1.2289 N   0  0  0  0  0  0  0  0  0  0  0  0
   -0.6054   -1.0627   -1.3455 C   0  0  0  0  0  0  0  0  0  0  0  0
   -0.5089   -1.6947   -0.1867 N   0  0  0  0  0  0  0  0  0  0  0  0
   -0.0527   -0.7673    0.7153 C   0  0  0  0  0  0  0  0  0  0  0  0
    0.0675    0.4650    0.0675 C   0  0  0  0  0  0  0  0  0  0  0  0
    0.3279   -1.0980    2.0983 C   0  0  0  0  0  0  0  0  0  0  0  0
    0.3561   -0.0376    2.9708 N   0  0  0  0  0  0  0  0  0  0  0  0
    0.6869   -2.2217    2.4635 O   0  0  0  0  0  0  0  0  0  0  0  0
   -0.4204    0.6961   -3.2535 H   0  0  0  0  0  0  0  0  0  0  0  0
   -1.0007    1.9477   -2.1517 H   0  0  0  0  0  0  0  0  0  0  0  0
    0.7832    1.6582   -2.2856 H   0  0  0  0  0  0  0  0  0  0  0  0
   -0.9371   -1.5097   -2.2721 H   0  0  0  0  0  0  0  0  0  0  0  0
    0.4603    1.4371    0.3870 H   0  0  0  0  0  0  0  0  0  0  0  0
    1.0360   -0.1415    3.7398 H   0  0  0  0  0  0  0  0  0  0  0  0
    0.3374    0.8768    2.5864 H   0  0  0  0  0  0  0  0  0  0  0  0
  3 13  1  0
  1 11  1  0
  3  4  2  0
  2  3  1  0
  4  5  1  0
  8 15  1  0
  1  2  1  0
  1 10  1  0
  1 12  1  0
  2  6  1  0
  5  6  2  0
  5  7  1  0
  8 16  1  0
  7  8  1  0
  6 14  1  0
  7  9  2  0
M  END
$$$$

     RDKit          3D

 19 20  0  0  0  0  0  0  0  0999 V2000
   -0.6023    1.3674    1.6219 C   0  0  0  0  0  0  0  0  0  0  0  0
   -0.1406    0.3146    0.6141 C   0  0  0  0  0  0  0  0  0  0  0  0
    1.0314    0.6860   -0.3780 C   0  0  0  0  0  0  0  0  0  0  0  0
    1.3340   -0.7311   -1.0699 C   0  0  0  0  0  0  0  0  0  0  0  0
   -0.1086   -1.2813   -1.1498 C   0  0  0  0  0  0  0  0  0  0  0  0
   -1.0404   -0.3106   -1.8318 N   0  0  0  0  0  0  0  0  0  0  0  0
   -1.0832   -0.4626   -0.2861 C   0  0  0  0  0  0  0  0  0  0  0  0
    0.3634   -0.7725    1.6329 C   0  0  0  0  0  0  0  0  0  0  0  0
    0.5508   -1.4112    2.6117 N   0  0  0  0  0  0  0  0  0  0  0  0
   -1.6790    1.5236    1.8549 H   0  0  0  0  0  0  0  0  0  0  0  0
   -0.0907    2.3105    1.5080 H   0  0  0  0  0  0  0  0  0  0  0  0
   -0.3951    1.0412    2.6830 H   0  0  0  0  0  0  0  0  0  0  0  0
    1.7287    1.3472   -0.0268 H   0  0  0  0  0  0  0  0  0  0  0  0
    0.5189    1.3179   -1.1399 H   0  0  0  0  0  0  0  0  0  0  0  0
    1.5325   -0.7741   -2.1658 H   0  0  0  0  0  0  0  0  0  0  0  0
    2.1140   -1.2368   -0.4892 H   0  0  0  0  0  0  0  0  0  0  0  0
   -0.3496   -2.3294   -1.3048 H   0  0  0  0  0  0  0  0  0  0  0  0
   -1.7718   -0.8500   -2.3076 H   0  0  0  0  0  0  0  0  0  0  0  0
   -1.9125    0.2514   -0.3769 H   0  0  0  0  0  0  0  0  0  0  0  0
  3 13  1  0
  3 14  1  0
  4 16  1  0
  3  4  1  0
  2  3  1  0
  4 15  1  0
  1 11  1  0
  4  5  1  0
  8  9  3  0
  2  8  1  0
  1  2  1  0
  2  7  1  0
  1 10  1  0
  1 12  1  0
  5  6  1  0
  5  7  1  0
  5 17  1  0
  6  7  1  0
  6 18  1  0
  7 19  1  0
M  END
$$$$

     RDKit          3D

 23 22  0  0  0  0  0  0  0  0999 V2000
   -0.2614   -0.6027    2.0976 C   0  0  0  0  0  0  0  0  0  0  0  0
   -1.0766   -0.7760    0.8211 C   0  0  0  0  0  0  0  0  0  0  0  0
   -0.3801   -1.2465   -0.4081 C   0  0  0  0  0  0  0  0  0  0  0  0
    0.5662   -0.2624   -0.7999 O   0  0  0  0  0  0  0  0  0  0  0  0
    0.0812    1.1727   -0.9986 C   0  0  0  0  0  0  0  0  0  0  0  0
    0.5746    2.0082    0.2399 C   0  0  0  0  0  0  0  0  0  0  0  0
    0.6602    1.6146   -2.2818 C   0  0  0  0  0  0  0  0  0  0  0  0
    0.1449   -2.5718   -0.0986 C   0  0  0  0  0  0  0  0  0  0  0  0
    0.2092   -3.6877    0.3567 C   0  0  0  0  0  0  0  0  0  0  0  0
    0.8141   -0.4035    1.8751 H   0  0  0  0  0  0  0  0  0  0  0  0
   -0.7133    0.3592    2.5282 H   0  0  0  0  0  0  0  0  0  0  0  0
   -0.3378   -1.5304    2.7344 H   0  0  0  0  0  0  0  0  0  0  0  0
   -1.9660   -1.3873    1.0210 H   0  0  0  0  0  0  0  0  0  0  0  0
   -1.4933    0.1560    0.5367 H   0  0  0  0  0  0  0  0  0  0  0  0
   -1.0870   -1.2734   -1.2606 H   0  0  0  0  0  0  0  0  0  0  0  0
   -1.0112    1.1479   -1.0659 H   0  0  0  0  0  0  0  0  0  0  0  0
   -0.1128    2.7841    0.6703 H   0  0  0  0  0  0  0  0  0  0  0  0
    0.9570    1.2640    1.0012 H   0  0  0  0  0  0  0  0  0  0  0  0
    1.4276    2.5259   -0.1944 H   0  0  0  0  0  0  0  0  0  0  0  0
    0.3065    1.1755   -3.1581 H   0  0  0  0  0  0  0  0  0  0  0  0
    0.5164    2.7046   -2.3963 H   0  0  0  0  0  0  0  0  0  0  0  0
    1.7803    1.4050   -2.2598 H   0  0  0  0  0  0  0  0  0  0  0  0
    0.4012   -4.5762    1.0399 H   0  0  0  0  0  0  0  0  0  0  0  0
  6 17  1  0
  6 18  1  0
  7 21  1  0
  6 19  1  0
  5  6  1  0
  5 16  1  0
  5  7  1  0
  4  5  1  0
  7 20  1  0
  7 22  1  0
  9 23  1  0
  8  9  3  0
  3 15  1  0
  3  8  1  0
  3  4  1  0
  2  3  1  0
  1 11  1  0
  2 14  1  0
  1  2  1  0
  2 13  1  0
  1 10  1  0
  1 12  1  0
M  END
$$$$

     RDKit          3D

 18 21  0  0  0  0  0  0  0  0999 V2000
    2.3275    0.0348    1.1622 O   0  0  0  0  0  0  0  0  0  0  0  0
    1.1512    0.2412    0.3638 C   0  0  0  0  0  0  0  0  0  0  0  0
    0.4856    1.6419    0.3201 C   0  0  0  0  0  0  0  0  0  0  0  0
   -0.7917    0.9821   -0.1630 C   0  0  0  0  0  0  0  0  0  0  0  0
   -0.6443   -0.2300   -1.1271 C   0  0  0  0  0  0  0  0  0  0  0  0
   -1.4604   -1.3320   -0.5555 C   0  0  0  0  0  0  0  0  0  0  0  0
   -0.2827   -1.3850    0.4860 N   0  0  0  0  0  0  0  0  0  0  0  0
    0.6306   -0.7848   -0.5862 C   0  0  0  0  0  0  0  0  0  0  0  0
   -0.3815   -0.0259    1.0288 C   0  0  0  0  0  0  0  0  0  0  0  0
    2.1012   -0.7060    1.8150 H   0  0  0  0  0  0  0  0  0  0  0  0
    1.0238    2.3854   -0.2843 H   0  0  0  0  0  0  0  0  0  0  0  0
    0.2866    2.1786    1.3154 H   0  0  0  0  0  0  0  0  0  0  0  0
   -0.6427    1.6011   -1.1032 H   0  0  0  0  0  0  0  0  0  0  0  0
   -0.6558   -0.0178   -2.2359 H   0  0  0  0  0  0  0  0  0  0  0  0
   -1.4338   -2.0664   -1.2558 H   0  0  0  0  0  0  0  0  0  0  0  0
   -2.4817   -0.9464   -0.2682 H   0  0  0  0  0  0  0  0  0  0  0  0
    1.2150   -1.6293   -1.0597 H   0  0  0  0  0  0  0  0  0  0  0  0
   -0.4468    0.0584    2.1474 H   0  0  0  0  0  0  0  0  0  0  0  0
  3 11  1  0
  3 12  1  0
  3  4  1  0
  2  3  1  0
  4 13  1  0
  4  9  1  0
  4  5  1  0
  9 18  1  0
  1  2  1  0
  1 10  1  0
  2  9  1  0
  2  8  1  0
  7  9  1  0
  5 14  1  0
  5  8  1  0
  5  6  1  0
  7  8  1  0
  8 17  1  0
  6 15  1  0
  6  7  1  0
  6 16  1  0
M  END
$$$$

     RDKit          3D

 17 19  0  0  0  0  0  0  0  0999 V2000
    0.8231   -0.0293   -2.1586 O   0  0  0  0  0  0  0  0  0  0  0  0
    0.3865   -0.7957   -1.3297 C   0  0  0  0  0  0  0  0  0  0  0  0
    0.2591   -2.1488   -1.2408 N   0  0  0  0  0  0  0  0  0  0  0  0
   -0.1347   -2.0641    0.1783 C   0  0  0  0  0  0  0  0  0  0  0  0
   -0.1472   -0.6080   -0.0085 C   0  0  0  0  0  0  0  0  0  0  0  0
   -0.9628    0.4606    0.5621 C   0  0  0  0  0  0  0  0  0  0  0  0
   -0.7371    1.9158    0.3418 C   0  0  0  0  0  0  0  0  0  0  0  0
    0.7681    1.6322    0.4908 C   0  0  0  0  0  0  0  0  0  0  0  0
    0.4555    0.2882    0.9781 N   0  0  0  0  0  0  0  0  0  0  0  0
    1.0263   -2.6815   -1.6372 H   0  0  0  0  0  0  0  0  0  0  0  0
   -1.1040   -2.5404    0.3636 H   0  0  0  0  0  0  0  0  0  0  0  0
    0.6230   -2.4974    0.8432 H   0  0  0  0  0  0  0  0  0  0  0  0
   -1.6889    0.2595    1.3408 H   0  0  0  0  0  0  0  0  0  0  0  0
   -1.1560    2.5620    1.1202 H   0  0  0  0  0  0  0  0  0  0  0  0
   -1.0336    2.2948   -0.6399 H   0  0  0  0  0  0  0  0  0  0  0  0
    1.2696    2.2675    1.2281 H   0  0  0  0  0  0  0  0  0  0  0  0
    1.3531    1.6846   -0.4322 H   0  0  0  0  0  0  0  0  0  0  0  0
  8 16  1  0
  8 17  1  0
  4 11  1  0
  8  9  1  0
  7  8  1  0
  5  9  1  0
  6  9  1  0
  3 10  1  0
  3  4  1  0
  2  3  1  0
  1  2  2  0
  4  5  1  0
  4 12  1  0
  2  5  1  0
  5  6  1  0
  6  7  1  0
  6 13  1  0
  7 14  1  0
  7 15  1  0
M  END
$$$$

     RDKit          3D

 16 17  0  0  0  0  0  0  0  0999 V2000
    0.2335    2.1060   -0.9097 N   0  0  0  0  0  0  0  0  0  0  0  0
   -0.2402    0.6970   -0.7455 C   0  0  0  0  0  0  0  0  0  0  0  0
   -1.4310    0.3302   -1.4907 C   0  0  0  0  0  0  0  0  0  0  0  0
   -2.3847    0.0058   -2.0711 N   0  0  0  0  0  0  0  0  0  0  0  0
    0.7953   -0.3970   -0.5214 C   0  0  0  0  0  0  0  0  0  0  0  0
    0.4859   -1.7724   -0.1151 N   0  0  0  0  0  0  0  0  0  0  0  0
   -0.4200   -1.3508    0.9576 C   0  0  0  0  0  0  0  0  0  0  0  0
   -0.0721    0.0691    0.6205 C   0  0  0  0  0  0  0  0  0  0  0  0
    0.5866    0.8414    1.6483 O   0  0  0  0  0  0  0  0  0  0  0  0
   -0.2919    2.6925   -0.2503 H   0  0  0  0  0  0  0  0  0  0  0  0
    1.2103    2.1891   -0.5872 H   0  0  0  0  0  0  0  0  0  0  0  0
    1.8453   -0.1279   -0.5211 H   0  0  0  0  0  0  0  0  0  0  0  0
    0.0252   -2.2751   -0.8707 H   0  0  0  0  0  0  0  0  0  0  0  0
   -1.4711   -1.6146    0.7935 H   0  0  0  0  0  0  0  0  0  0  0  0
   -0.1249   -1.6936    1.9518 H   0  0  0  0  0  0  0  0  0  0  0  0
    1.2539    0.3003    2.1114 H   0  0  0  0  0  0  0  0  0  0  0  0
  9 16  1  0
  3  4  3  0
  8  9  1  0
  2  3  1  0
  1  2  1  0
  1 11  1  0
  1 10  1  0
  2  8  1  0
  2  5  1  0
  7  8  1  0
  5  8  1  0
  7 15  1  0
  7 14  1  0
  6  7  1  0
  5 12  1  0
  5  6  1  0
  6 13  1  0
M  END
$$$$

     RDKit          3D

  8  8  0  0  0  0  0  0  0  0999 V2000
    0.2597    1.5108   -1.2306 O   0  0  0  0  0  0  0  0  0  0  0  0
    0.0992    0.5768   -0.4698 C   0  0  0  0  0  0  0  0  0  0  0  0
    1.0449   -0.1322    0.2258 N   0  0  0  0  0  0  0  0  0  0  0  0
    0.4439   -1.1016    0.9673 N   0  0  0  0  0  0  0  0  0  0  0  0
   -0.8121   -1.0404    0.7773 N   0  0  0  0  0  0  0  0  0  0  0  0
   -1.0726   -0.0291   -0.0945 N   0  0  0  0  0  0  0  0  0  0  0  0
    2.0414    0.0093    0.2181 H   0  0  0  0  0  0  0  0  0  0  0  0
   -2.0043    0.2064   -0.3938 H   0  0  0  0  0  0  0  0  0  0  0  0
  1  2  2  0
  2  3  1  0
  2  6  1  0
  3  4  1  0
  3  7  1  0
  4  5  2  0
  5  6  1  0
  6  8  1  0
M  END
$$$$

     RDKit          3D

 15 15  0  0  0  0  0  0  0  0999 V2000
    2.4393   -1.8495    0.8187 N   0  0  0  0  0  0  0  0  0  0  0  0
    1.5665   -0.8882    0.5363 C   0  0  0  0  0  0  0  0  0  0  0  0
    1.6994    0.3983    0.8355 N   0  0  0  0  0  0  0  0  0  0  0  0
    0.5604    0.9064    0.3422 N   0  0  0  0  0  0  0  0  0  0  0  0
   -0.2205   -0.0704   -0.2153 C   0  0  0  0  0  0  0  0  0  0  0  0
   -1.5313    0.1545   -0.8739 C   0  0  0  0  0  0  0  0  0  0  0  0
   -2.1133    1.5264   -0.6269 C   0  0  0  0  0  0  0  0  0  0  0  0
   -1.5218    2.4574   -0.0861 O   0  0  0  0  0  0  0  0  0  0  0  0
    0.4051   -1.2239   -0.0838 N   0  0  0  0  0  0  0  0  0  0  0  0
    3.1141   -1.6359    1.5390 H   0  0  0  0  0  0  0  0  0  0  0  0
    2.0663   -2.7882    0.8593 H   0  0  0  0  0  0  0  0  0  0  0  0
    0.3640    1.9041    0.4165 H   0  0  0  0  0  0  0  0  0  0  0  0
   -1.4308    0.0217   -1.9568 H   0  0  0  0  0  0  0  0  0  0  0  0
   -2.2539   -0.5825   -0.5035 H   0  0  0  0  0  0  0  0  0  0  0  0
   -3.1436    1.6696   -1.0012 H   0  0  0  0  0  0  0  0  0  0  0  0
  7  8  2  0
  7 15  1  0
  6  7  1  0
  4 12  1  0
  3  4  1  0
  2  3  2  0
  4  5  1  0
  1  2  1  0
  1 11  1  0
  1 10  1  0
  2  9  1  0
  5  6  1  0
  5  9  2  0
  6 14  1  0
  6 13  1  0
M  END
$$$$

     RDKit          3D

 17 17  0  0  0  0  0  0  0  0999 V2000
    0.2476    1.9067    0.0635 N   0  0  0  0  0  0  0  0  0  0  0  0
    0.8282    2.6831   -0.2578 H   0  0  0  0  0  0  0  0  0  0  0  0
   -3.1703   -0.8072    0.3764 H   0  0  0  0  0  0  0  0  0  0  0  0
   -0.1607    2.2040    0.9558 H   0  0  0  0  0  0  0  0  0  0  0  0
    0.9550    0.6340    0.1381 C   0  0  0  0  0  0  0  0  0  0  0  0
    0.8754   -0.0273   -1.2485 C   0  0  0  0  0  0  0  0  0  0  0  0
    0.5519   -1.3459   -0.5311 C   0  0  0  0  0  0  0  0  0  0  0  0
    0.0522   -0.5081    0.6827 C   0  0  0  0  0  0  0  0  0  0  0  0
   -1.4671   -0.2776    0.8823 C   0  0  0  0  0  0  0  0  0  0  0  0
   -2.0058    0.5436    1.6233 O   0  0  0  0  0  0  0  0  0  0  0  0
   -2.2620   -1.1134    0.1680 O   0  0  0  0  0  0  0  0  0  0  0  0
    1.9562    0.6737    0.5811 H   0  0  0  0  0  0  0  0  0  0  0  0
    0.0654    0.3269   -1.8949 H   0  0  0  0  0  0  0  0  0  0  0  0
    1.8044   -0.0438   -1.8228 H   0  0  0  0  0  0  0  0  0  0  0  0
   -0.1727   -1.9891   -1.0407 H   0  0  0  0  0  0  0  0  0  0  0  0
    1.4428   -1.9462   -0.2992 H   0  0  0  0  0  0  0  0  0  0  0  0
    0.4595   -0.9133    1.6238 H   0  0  0  0  0  0  0  0  0  0  0  0
  1  2  1  0
  1  4  1  0
  1  5  1  0
  3 11  1  0
  6 14  1  0
  5  6  1  0
  5 12  1  0
  5  8  1  0
  6 13  1  0
  9 11  1  0
  6  7  1  0
  8  9  1  0
  9 10  2  0
  7  8  1  0
  8 17  1  0
  7 16  1  0
  7 15  1  0
M  END
$$$$

     RDKit          3D

 21 22  0  0  0  0  0  0  0  0999 V2000
   -0.3386    1.5529   -0.6731 C   0  0  0  0  0  0  0  0  0  0  0  0
    0.1126    0.5941   -1.7409 C   0  0  0  0  0  0  0  0  0  0  0  0
   -1.0461   -0.2839   -0.7499 C   0  0  0  0  0  0  0  0  0  0  0  0
   -1.7275    1.0327   -0.8618 C   0  0  0  0  0  0  0  0  0  0  0  0
   -0.5163   -1.1633    0.2576 C   0  0  0  0  0  0  0  0  0  0  0  0
    1.0332   -1.3705    0.2313 C   0  0  0  0  0  0  0  0  0  0  0  0
    1.4634   -0.2634    1.1532 C   0  0  0  0  0  0  0  0  0  0  0  0
    0.5575   -0.0913    2.1113 O   0  0  0  0  0  0  0  0  0  0  0  0
   -0.6169   -1.0183    1.7847 C   0  0  0  0  0  0  0  0  0  0  0  0
   -0.1423    2.6342   -0.9902 H   0  0  0  0  0  0  0  0  0  0  0  0
   -0.0439    1.3762    0.3793 H   0  0  0  0  0  0  0  0  0  0  0  0
    0.8691   -0.2797   -2.0400 H   0  0  0  0  0  0  0  0  0  0  0  0
   -0.1953    1.0798   -2.7443 H   0  0  0  0  0  0  0  0  0  0  0  0
   -1.9810    1.4448   -1.9948 H   0  0  0  0  0  0  0  0  0  0  0  0
   -2.6812    0.9045   -0.2641 H   0  0  0  0  0  0  0  0  0  0  0  0
    1.3771   -2.3822    0.5045 H   0  0  0  0  0  0  0  0  0  0  0  0
    1.5851   -1.3489   -0.8228 H   0  0  0  0  0  0  0  0  0  0  0  0
    1.8184    0.6827    0.5791 H   0  0  0  0  0  0  0  0  0  0  0  0
    2.4382   -0.6947    1.4127 H   0  0  0  0  0  0  0  0  0  0  0  0
   -0.4201   -1.9510    2.5024 H   0  0  0  0  0  0  0  0  0  0  0  0
   -1.5453   -0.4545    1.9659 H   0  0  0  0  0  0  0  0  0  0  0  0
  1 11  1  0
  1 10  1  0
  1  4  1  0
  1  2  1  0
  4 15  1  0
  2 12  1  0
  3  4  1  0
  4 14  1  0
  2  3  1  0
  2 13  1  0
  3  5  2  3
  9 20  1  0
  6 17  1  0
  7 19  1  0
  5  6  1  0
  5  9  1  0
  6  7  1  0
  6 16  1  0
  9 21  1  0
  8  9  1  0
  7  8  1  0
  7 18  1  0
M  END
$$$$

     RDKit          3D

 18 19  0  0  0  0  0  0  0  0999 V2000
    2.1571    1.5753   -1.4593 N   0  0  0  0  0  0  0  0  0  0  0  0
    2.3093    1.2230   -0.0457 C   0  0  0  0  0  0  0  0  0  0  0  0
    1.1379    1.5220    0.7105 O   0  0  0  0  0  0  0  0  0  0  0  0
   -0.1828    1.0702    0.1961 C   0  0  0  0  0  0  0  0  0  0  0  0
    0.0466   -0.4724   -0.4359 C   0  0  0  0  0  0  0  0  0  0  0  0
   -1.3943   -0.2966   -0.7451 C   0  0  0  0  0  0  0  0  0  0  0  0
   -1.2960    0.2191    0.8803 C   0  0  0  0  0  0  0  0  0  0  0  0
   -0.8856   -1.0623    1.6028 C   0  0  0  0  0  0  0  0  0  0  0  0
    0.0626   -1.5001    0.7813 C   0  0  0  0  0  0  0  0  0  0  0  0
    2.8507    1.0395   -1.9723 H   0  0  0  0  0  0  0  0  0  0  0  0
    2.5354    0.1300    0.1513 H   0  0  0  0  0  0  0  0  0  0  0  0
   -0.6436    1.9479   -0.2463 H   0  0  0  0  0  0  0  0  0  0  0  0
    0.6926   -0.8550   -1.2331 H   0  0  0  0  0  0  0  0  0  0  0  0
   -1.8696    0.4008   -1.4524 H   0  0  0  0  0  0  0  0  0  0  0  0
   -1.9208   -1.3185   -0.7598 H   0  0  0  0  0  0  0  0  0  0  0  0
   -2.2802    0.6689    1.1948 H   0  0  0  0  0  0  0  0  0  0  0  0
   -1.5914   -1.7614    2.1735 H   0  0  0  0  0  0  0  0  0  0  0  0
    0.2721   -2.5304    0.6594 H   0  0  0  0  0  0  0  0  0  0  0  0
  7 16  1  0
  8 17  1  0
  7  8  1  0
  4  7  1  0
  6  7  1  0
  8  9  2  0
  4 12  1  0
  3  4  1  0
  2  3  1  0
  4  5  1  0
  1  2  1  0
  2 11  1  0
  1 10  1  0
  6 15  1  0
  6 14  1  0
  5  6  1  0
  5  9  1  0
  9 18  1  0
  5 13  1  0
M  END
$$$$

     RDKit          3D

 21 21  0  0  0  0  0  0  0  0999 V2000
   -1.4364    1.9614    0.1530 C   0  0  0  0  0  0  0  0  0  0  0  0
   -0.5265    1.2608   -0.8599 C   0  0  0  0  0  0  0  0  0  0  0  0
   -0.4543   -0.2268   -0.5363 C   0  0  0  0  0  0  0  0  0  0  0  0
    0.6114   -0.8634   -1.4369 C   0  0  0  0  0  0  0  0  0  0  0  0
    1.9625   -0.6524   -0.6640 C   0  0  0  0  0  0  0  0  0  0  0  0
    1.4657   -0.6455    0.7047 C   0  0  0  0  0  0  0  0  0  0  0  0
    0.1429   -0.4467    0.8223 C   0  0  0  0  0  0  0  0  0  0  0  0
   -0.5884   -0.9113    1.9974 C   0  0  0  0  0  0  0  0  0  0  0  0
   -1.1731   -1.6708    2.7275 C   0  0  0  0  0  0  0  0  0  0  0  0
   -0.9404    2.0507    1.1102 H   0  0  0  0  0  0  0  0  0  0  0  0
   -1.6958    2.9665   -0.1932 H   0  0  0  0  0  0  0  0  0  0  0  0
   -2.3647    1.3483    0.2733 H   0  0  0  0  0  0  0  0  0  0  0  0
   -0.8700    1.3579   -1.8901 H   0  0  0  0  0  0  0  0  0  0  0  0
    0.5126    1.6919   -0.7969 H   0  0  0  0  0  0  0  0  0  0  0  0
   -1.4223   -0.7362   -0.6240 H   0  0  0  0  0  0  0  0  0  0  0  0
    0.4004   -1.9569   -1.5309 H   0  0  0  0  0  0  0  0  0  0  0  0
    0.6652   -0.3979   -2.4332 H   0  0  0  0  0  0  0  0  0  0  0  0
    2.6978   -1.4840   -0.7919 H   0  0  0  0  0  0  0  0  0  0  0  0
    2.4750    0.2748   -0.9447 H   0  0  0  0  0  0  0  0  0  0  0  0
    2.1191   -0.4510    1.5844 H   0  0  0  0  0  0  0  0  0  0  0  0
   -1.5809   -2.4696    3.3294 H   0  0  0  0  0  0  0  0  0  0  0  0
  6 20  1  0
  5 18  1  0
  5  6  1  0
  6  7  2  0
  5 19  1  0
  4  5  1  0
  9 21  1  0
  8  9  3  0
  7  8  1  0
  3  7  1  0
  3  4  1  0
  4 16  1  0
  4 17  1  0
  3 15  1  0
  2  3  1  0
  2 14  1  0
  2 13  1  0
  1  2  1  0
  1 11  1  0
  1 10  1  0
  1 12  1  0
M  END
$$$$

     RDKit          3D

 13 13  0  0  0  0  0  0  0  0999 V2000
    1.3412    2.2449   -2.3575 O   0  0  0  0  0  0  0  0  0  0  0  0
    0.5971    1.4723   -1.7665 C   0  0  0  0  0  0  0  0  0  0  0  0
   -0.3869    0.7311   -2.4106 O   0  0  0  0  0  0  0  0  0  0  0  0
   -0.9315    0.0493   -1.3591 C   0  0  0  0  0  0  0  0  0  0  0  0
   -0.3477    0.3338   -0.2188 C   0  0  0  0  0  0  0  0  0  0  0  0
   -0.6415   -0.1644    1.1532 C   0  0  0  0  0  0  0  0  0  0  0  0
    0.4268   -1.0626    1.6122 C   0  0  0  0  0  0  0  0  0  0  0  0
    1.2982   -1.7970    1.9921 C   0  0  0  0  0  0  0  0  0  0  0  0
    0.6558    1.2680   -0.3943 O   0  0  0  0  0  0  0  0  0  0  0  0
   -1.7438   -0.6182   -1.5827 H   0  0  0  0  0  0  0  0  0  0  0  0
   -1.5996   -0.6972    1.1664 H   0  0  0  0  0  0  0  0  0  0  0  0
   -0.7431    0.6852    1.8377 H   0  0  0  0  0  0  0  0  0  0  0  0
    2.0750   -2.4452    2.3279 H   0  0  0  0  0  0  0  0  0  0  0  0
  1  2  2  0
  6 12  1  0
  2  9  1  0
  5  9  1  0
  2  3  1  0
  5  6  1  0
  4  5  2  0
  6 11  1  0
  6  7  1  0
  3  4  1  0
  4 10  1  0
  7  8  3  0
  8 13  1  0
M  END
$$$$

     RDKit          3D

 17 18  0  0  0  0  0  0  0  0999 V2000
   -1.8259    1.8881    1.5938 O   0  0  0  0  0  0  0  0  0  0  0  0
   -1.5331    1.5258    0.2470 C   0  0  0  0  0  0  0  0  0  0  0  0
   -0.6892    0.3146    0.2331 C   0  0  0  0  0  0  0  0  0  0  0  0
    0.6998    0.2478    0.7217 C   0  0  0  0  0  0  0  0  0  0  0  0
    1.1055   -0.3657   -0.6444 C   0  0  0  0  0  0  0  0  0  0  0  0
    1.6970   -1.6848   -0.6184 C   0  0  0  0  0  0  0  0  0  0  0  0
    2.1554   -2.8039   -0.5993 C   0  0  0  0  0  0  0  0  0  0  0  0
   -0.3253   -0.3809   -1.0314 C   0  0  0  0  0  0  0  0  0  0  0  0
   -1.2874   -0.9248   -0.1353 O   0  0  0  0  0  0  0  0  0  0  0  0
   -2.1255    1.0716    2.0449 H   0  0  0  0  0  0  0  0  0  0  0  0
   -1.0213    2.3659   -0.2373 H   0  0  0  0  0  0  0  0  0  0  0  0
   -2.4820    1.3516   -0.2789 H   0  0  0  0  0  0  0  0  0  0  0  0
    1.1719    1.2083    0.9387 H   0  0  0  0  0  0  0  0  0  0  0  0
    0.8448   -0.3980    1.5880 H   0  0  0  0  0  0  0  0  0  0  0  0
    1.6656    0.3445   -1.2656 H   0  0  0  0  0  0  0  0  0  0  0  0
    2.5267   -3.8094   -0.5609 H   0  0  0  0  0  0  0  0  0  0  0  0
   -0.5771    0.0494   -1.9957 H   0  0  0  0  0  0  0  0  0  0  0  0
  1 10  1  0
  8  9  1  0
  3  9  1  0
  2 11  1  0
  8 17  1  0
  1  2  1  0
  3  8  1  0
  5  8  1  0
  2  3  1  0
  2 12  1  0
  7 16  1  0
  3  4  1  0
  6  7  3  0
  5  6  1  0
  4  5  1  0
  5 15  1  0
  4 14  1  0
  4 13  1  0
M  END
$$$$

     RDKit          3D

 21 24  0  0  0  0  0  0  0  0999 V2000
    1.1730    2.3186   -0.3956 C   0  0  0  0  0  0  0  0  0  0  0  0
    0.4385    1.5356    0.6478 C   0  0  0  0  0  0  0  0  0  0  0  0
   -1.0718    1.4741    0.5858 C   0  0  0  0  0  0  0  0  0  0  0  0
   -0.2497    0.2663    0.3007 C   0  0  0  0  0  0  0  0  0  0  0  0
   -0.2094   -0.5321   -0.9232 C   0  0  0  0  0  0  0  0  0  0  0  0
   -1.1797   -1.4949   -0.1608 C   0  0  0  0  0  0  0  0  0  0  0  0
   -0.1694   -2.6349   -0.4314 C   0  0  0  0  0  0  0  0  0  0  0  0
    0.7800   -1.4447   -0.1210 C   0  0  0  0  0  0  0  0  0  0  0  0
   -0.2350   -1.0144    0.9974 C   0  0  0  0  0  0  0  0  0  0  0  0
    0.7281    3.3175   -0.4745 H   0  0  0  0  0  0  0  0  0  0  0  0
    2.2387    2.4321   -0.1155 H   0  0  0  0  0  0  0  0  0  0  0  0
    1.1467    1.8550   -1.3796 H   0  0  0  0  0  0  0  0  0  0  0  0
    0.8975    1.5946    1.6307 H   0  0  0  0  0  0  0  0  0  0  0  0
   -1.6069    1.5557    1.5324 H   0  0  0  0  0  0  0  0  0  0  0  0
   -1.5544    1.9781   -0.2463 H   0  0  0  0  0  0  0  0  0  0  0  0
   -0.1901   -0.3993   -1.9977 H   0  0  0  0  0  0  0  0  0  0  0  0
   -2.2547   -1.5300   -0.1913 H   0  0  0  0  0  0  0  0  0  0  0  0
   -0.1811   -3.4592    0.3012 H   0  0  0  0  0  0  0  0  0  0  0  0
   -0.1397   -3.0233   -1.4524 H   0  0  0  0  0  0  0  0  0  0  0  0
    1.8628   -1.3903   -0.1094 H   0  0  0  0  0  0  0  0  0  0  0  0
   -0.2232   -1.4046    2.0029 H   0  0  0  0  0  0  0  0  0  0  0  0
  1 11  1  0
  3 14  1  0
  2 13  1  0
  3 15  1  0
  2  3  1  0
  3  4  1  0
  1  2  1  0
  1 10  1  0
  1 12  1  0
  2  4  1  0
  4  9  1  0
  4  5  1  0
  9 21  1  0
  8  9  1  0
  6  9  1  0
  5 16  1  0
  5  8  1  0
  5  6  1  0
  8 20  1  0
  7  8  1  0
  6 17  1  0
  6  7  1  0
  7 19  1  0
  7 18  1  0
M  END
$$$$

     RDKit          3D

 18 19  0  0  0  0  0  0  0  0999 V2000
    0.0378    1.5238   -1.3459 C   0  0  0  0  0  0  0  0  0  0  0  0
    0.8690    0.5279   -0.5400 C   0  0  0  0  0  0  0  0  0  0  0  0
    0.7238    0.7558    0.8895 N   0  0  0  0  0  0  0  0  0  0  0  0
   -0.2839    0.2395    1.6506 C   0  0  0  0  0  0  0  0  0  0  0  0
   -0.5977    0.8018    2.6977 O   0  0  0  0  0  0  0  0  0  0  0  0
   -0.9525   -1.0412    1.1990 C   0  0  0  0  0  0  0  0  0  0  0  0
   -0.3207   -1.6957    0.0156 C   0  0  0  0  0  0  0  0  0  0  0  0
   -0.7826   -1.1943   -1.2447 O   0  0  0  0  0  0  0  0  0  0  0  0
    0.5775   -0.8991   -0.8858 C   0  0  0  0  0  0  0  0  0  0  0  0
    0.3437    2.5506   -1.1195 H   0  0  0  0  0  0  0  0  0  0  0  0
   -1.0326    1.4450   -1.1145 H   0  0  0  0  0  0  0  0  0  0  0  0
    0.1694    1.3592   -2.4217 H   0  0  0  0  0  0  0  0  0  0  0  0
    1.9276    0.7197   -0.7509 H   0  0  0  0  0  0  0  0  0  0  0  0
    1.0681    1.6349    1.2586 H   0  0  0  0  0  0  0  0  0  0  0  0
   -2.0122   -0.8302    1.0030 H   0  0  0  0  0  0  0  0  0  0  0  0
   -0.9017   -1.7426    2.0435 H   0  0  0  0  0  0  0  0  0  0  0  0
   -0.1904   -2.7653    0.1130 H   0  0  0  0  0  0  0  0  0  0  0  0
    1.3574   -1.3899   -1.4474 H   0  0  0  0  0  0  0  0  0  0  0  0
  4  5  2  0
  3 14  1  0
  3  4  1  0
  4  6  1  0
  2  3  1  0
  1 11  1  0
  6 16  1  0
  6 15  1  0
  6  7  1  0
  1 10  1  0
  1  2  1  0
  1 12  1  0
  2 13  1  0
  2  9  1  0
  7  9  1  0
  7  8  1  0
  7 17  1  0
  8  9  1  0
  9 18  1  0
M  END
$$$$

     RDKit          3D

 16 17  0  0  0  0  0  0  0  0999 V2000
    0.2904   -0.2636   -2.9732 O   0  0  0  0  0  0  0  0  0  0  0  0
    1.0623   -0.1897   -2.0162 C   0  0  0  0  0  0  0  0  0  0  0  0
    0.5432    0.1372   -0.6507 C   0  0  0  0  0  0  0  0  0  0  0  0
    1.3219   -0.4738    0.5230 C   0  0  0  0  0  0  0  0  0  0  0  0
   -0.1265   -0.8821    0.1885 C   0  0  0  0  0  0  0  0  0  0  0  0
   -1.3359   -0.4377    0.9561 C   0  0  0  0  0  0  0  0  0  0  0  0
   -1.4583    0.9523    1.2712 O   0  0  0  0  0  0  0  0  0  0  0  0
   -0.8232    1.8381    0.4573 C   0  0  0  0  0  0  0  0  0  0  0  0
    0.0827    1.5481   -0.4248 N   0  0  0  0  0  0  0  0  0  0  0  0
    2.1410   -0.3753   -2.0786 H   0  0  0  0  0  0  0  0  0  0  0  0
    1.5389    0.2342    1.3140 H   0  0  0  0  0  0  0  0  0  0  0  0
    1.8495   -1.4376    0.7217 H   0  0  0  0  0  0  0  0  0  0  0  0
   -0.3083   -1.8616   -0.2689 H   0  0  0  0  0  0  0  0  0  0  0  0
   -2.2368   -0.6990    0.4033 H   0  0  0  0  0  0  0  0  0  0  0  0
   -1.3976   -0.9734    1.8812 H   0  0  0  0  0  0  0  0  0  0  0  0
   -1.1431    2.8838    0.6960 H   0  0  0  0  0  0  0  0  0  0  0  0
  6 14  1  0
  6 15  1  0
  5 13  1  0
  5  6  1  0
  6  7  1  0
  3  5  1  0
  4  5  1  0
  7  8  1  0
  1  2  2  0
  2  3  1  0
  3  4  1  0
  3  9  1  0
  8 16  1  0
  8  9  2  0
  2 10  1  0
  4 11  1  0
  4 12  1  0
M  END
$$$$

     RDKit          3D

 19 19  0  0  0  0  0  0  0  0999 V2000
   -1.5122    2.2515   -0.4882 C   0  0  0  0  0  0  0  0  0  0  0  0
   -0.5300    1.6843    0.5328 C   0  0  0  0  0  0  0  0  0  0  0  0
    0.2280    0.4422    0.0566 C   0  0  0  0  0  0  0  0  0  0  0  0
    0.9008   -0.1315    1.1777 O   0  0  0  0  0  0  0  0  0  0  0  0
    1.6794   -1.2413    0.8100 C   0  0  0  0  0  0  0  0  0  0  0  0
    0.7164   -2.3038    0.2742 C   0  0  0  0  0  0  0  0  0  0  0  0
    0.7376   -3.4968    0.6182 O   0  0  0  0  0  0  0  0  0  0  0  0
   -0.2085   -1.7681   -0.8212 C   0  0  0  0  0  0  0  0  0  0  0  0
   -0.6552   -0.4175   -0.5902 O   0  0  0  0  0  0  0  0  0  0  0  0
   -1.1047    2.2522   -1.5074 H   0  0  0  0  0  0  0  0  0  0  0  0
   -2.4137    1.6255   -0.4757 H   0  0  0  0  0  0  0  0  0  0  0  0
   -1.8072    3.2694   -0.2207 H   0  0  0  0  0  0  0  0  0  0  0  0
    0.2253    2.4398    0.7497 H   0  0  0  0  0  0  0  0  0  0  0  0
   -1.0676    1.4796    1.4681 H   0  0  0  0  0  0  0  0  0  0  0  0
    0.9824    0.7960   -0.6596 H   0  0  0  0  0  0  0  0  0  0  0  0
    2.1873   -1.6218    1.7017 H   0  0  0  0  0  0  0  0  0  0  0  0
    2.4114   -1.0101    0.0207 H   0  0  0  0  0  0  0  0  0  0  0  0
    0.3243   -1.8020   -1.8043 H   0  0  0  0  0  0  0  0  0  0  0  0
   -1.0936   -2.4476   -0.8423 H   0  0  0  0  0  0  0  0  0  0  0  0
  1 11  1  0
  2 14  1  0
  2 13  1  0
  1  2  1  0
  1 10  1  0
  1 12  1  0
  2  3  1  0
  3  9  1  0
  8  9  1  0
  3 15  1  0
  3  4  1  0
  8 18  1  0
  8 19  1  0
  6  8  1  0
  4  5  1  0
  5  6  1  0
  6  7  2  0
  5 16  1  0
  5 17  1  0
M  END
$$$$

     RDKit          3D

 17 19  0  0  0  0  0  0  0  0999 V2000
   -1.8795   -0.7666   -1.0747 O   0  0  0  0  0  0  0  0  0  0  0  0
   -0.8425   -0.3604   -0.5679 C   0  0  0  0  0  0  0  0  0  0  0  0
    0.1918   -0.9700    0.1946 C   0  0  0  0  0  0  0  0  0  0  0  0
    0.6787   -2.3687    0.0053 C   0  0  0  0  0  0  0  0  0  0  0  0
    1.5083   -1.2659   -0.4650 N   0  0  0  0  0  0  0  0  0  0  0  0
    0.2664    0.1864    1.1791 C   0  0  0  0  0  0  0  0  0  0  0  0
   -0.3741    0.8501    0.0200 C   0  0  0  0  0  0  0  0  0  0  0  0
   -0.9460    2.2136   -0.2067 C   0  0  0  0  0  0  0  0  0  0  0  0
    0.3080    1.8058   -0.8711 N   0  0  0  0  0  0  0  0  0  0  0  0
    1.0277   -2.9731    0.8458 H   0  0  0  0  0  0  0  0  0  0  0  0
    0.2141   -2.9608   -0.7853 H   0  0  0  0  0  0  0  0  0  0  0  0
    1.4182   -0.9583   -1.4440 H   0  0  0  0  0  0  0  0  0  0  0  0
   -0.5941    0.4686    1.8633 H   0  0  0  0  0  0  0  0  0  0  0  0
    0.6146   -0.4633    2.0001 H   0  0  0  0  0  0  0  0  0  0  0  0
   -1.7992    2.3301   -0.8741 H   0  0  0  0  0  0  0  0  0  0  0  0
   -0.8846    2.9917    0.5446 H   0  0  0  0  0  0  0  0  0  0  0  0
    1.0921    2.2409   -0.3639 H   0  0  0  0  0  0  0  0  0  0  0  0
  4 11  1  0
  9 17  1  0
  4 10  1  0
  7  9  1  0
  8  9  1  0
  3  4  1  0
  4  5  1  0
  1  2  2  0
  6 13  1  0
  2  3  1  0
  2  7  1  0
  3  6  1  0
  3  5  1  0
  6  7  1  0
  7  8  1  0
  6 14  1  0
  8 16  1  0
  8 15  1  0
  5 12  1  0
M  END
$$$$

     RDKit          3D

 18 21  0  0  0  0  0  0  0  0999 V2000
    0.9381   -1.2252   -0.8151 C   0  0  0  0  0  0  0  0  0  0  0  0
   -0.4521   -0.4511   -1.2988 C   0  0  0  0  0  0  0  0  0  0  0  0
   -0.7957    1.2481   -0.8087 C   0  0  0  0  0  0  0  0  0  0  0  0
    0.1724    0.5191   -0.0178 C   0  0  0  0  0  0  0  0  0  0  0  0
   -1.0052    0.3583    1.0313 C   0  0  0  0  0  0  0  0  0  0  0  0
   -0.1381    1.0770    1.8533 C   0  0  0  0  0  0  0  0  0  0  0  0
   -1.1902    1.7509    0.7932 N   0  0  0  0  0  0  0  0  0  0  0  0
    1.0018    0.5121    1.2416 C   0  0  0  0  0  0  0  0  0  0  0  0
    1.3536   -0.8508    0.7036 C   0  0  0  0  0  0  0  0  0  0  0  0
    0.9882   -2.3854   -1.1294 H   0  0  0  0  0  0  0  0  0  0  0  0
    1.7196   -0.9780   -1.5606 H   0  0  0  0  0  0  0  0  0  0  0  0
   -1.3000   -1.1595   -1.0127 H   0  0  0  0  0  0  0  0  0  0  0  0
   -0.4845   -0.4248   -2.4050 H   0  0  0  0  0  0  0  0  0  0  0  0
   -1.8362    0.9850   -1.0853 H   0  0  0  0  0  0  0  0  0  0  0  0
    1.0590    1.1301   -0.5068 H   0  0  0  0  0  0  0  0  0  0  0  0
   -1.9980   -0.0095    0.9944 H   0  0  0  0  0  0  0  0  0  0  0  0
   -0.3095    1.2746    2.9063 H   0  0  0  0  0  0  0  0  0  0  0  0
    2.2766   -1.3709    1.1165 H   0  0  0  0  0  0  0  0  0  0  0  0
  5 16  1  0
  4 15  1  0
  4  5  1  0
  5  7  1  0
  5  6  1  0
  3  4  1  0
  4  8  1  0
  3 14  1  0
  3  7  1  0
  2  3  1  0
  1 11  1  0
  6  8  1  0
  8  9  1  0
  6  7  1  0
  6 17  1  0
  2 12  1  0
  1  2  1  0
  2 13  1  0
  1  9  1  0
  1 10  1  0
  9 18  1  0
M  END
$$$$

     RDKit          3D

 16 17  0  0  0  0  0  0  0  0999 V2000
    0.3200   -1.2275   -3.0752 O   0  0  0  0  0  0  0  0  0  0  0  0
    0.5296   -0.5681   -2.0756 C   0  0  0  0  0  0  0  0  0  0  0  0
    0.7470    0.7741   -1.9786 O   0  0  0  0  0  0  0  0  0  0  0  0
    0.9142    0.7214   -0.5364 C   0  0  0  0  0  0  0  0  0  0  0  0
    0.0023    1.5894    0.2427 C   0  0  0  0  0  0  0  0  0  0  0  0
   -0.8079    1.0203    1.1453 C   0  0  0  0  0  0  0  0  0  0  0  0
   -0.8916   -0.4616    1.3366 C   0  0  0  0  0  0  0  0  0  0  0  0
   -0.6323   -1.1949    0.1084 N   0  0  0  0  0  0  0  0  0  0  0  0
    0.6463   -0.8019   -0.5330 C   0  0  0  0  0  0  0  0  0  0  0  0
    1.9539    0.9491   -0.2801 H   0  0  0  0  0  0  0  0  0  0  0  0
    0.0309    2.6626    0.0885 H   0  0  0  0  0  0  0  0  0  0  0  0
   -1.4581    1.6355    1.7553 H   0  0  0  0  0  0  0  0  0  0  0  0
   -0.2104   -0.7580    2.1428 H   0  0  0  0  0  0  0  0  0  0  0  0
   -1.9089   -0.7148    1.6578 H   0  0  0  0  0  0  0  0  0  0  0  0
   -0.7393   -2.1918    0.2586 H   0  0  0  0  0  0  0  0  0  0  0  0
    1.5040   -1.4341   -0.2572 H   0  0  0  0  0  0  0  0  0  0  0  0
  4 10  1  0
  9 16  1  0
  3  4  1  0
  4  9  1  0
  4  5  1  0
  2  3  1  0
  5 11  1  0
  2  9  1  0
  8  9  1  0
  1  2  2  0
  5  6  2  0
  7 13  1  0
  6  7  1  0
  6 12  1  0
  7  8  1  0
  8 15  1  0
  7 14  1  0
M  END
$$$$

     RDKit          3D

 14 14  0  0  0  0  0  0  0  0999 V2000
    1.8789    2.1184    0.8176 O   0  0  0  0  0  0  0  0  0  0  0  0
    1.1090    1.2660    0.3874 C   0  0  0  0  0  0  0  0  0  0  0  0
   -0.2283    1.3415    0.6874 N   0  0  0  0  0  0  0  0  0  0  0  0
   -1.3215    0.6594    0.2249 C   0  0  0  0  0  0  0  0  0  0  0  0
   -1.3749   -0.4821   -0.4639 C   0  0  0  0  0  0  0  0  0  0  0  0
   -0.2259   -1.3524   -0.7811 C   0  0  0  0  0  0  0  0  0  0  0  0
   -0.4161   -2.3572   -1.4647 O   0  0  0  0  0  0  0  0  0  0  0  0
    1.1132   -1.0253   -0.1707 C   0  0  0  0  0  0  0  0  0  0  0  0
    1.5271    0.2990   -0.4618 O   0  0  0  0  0  0  0  0  0  0  0  0
   -0.4118    2.1782    1.2342 H   0  0  0  0  0  0  0  0  0  0  0  0
   -2.2649    1.1470    0.4707 H   0  0  0  0  0  0  0  0  0  0  0  0
   -2.3332   -0.8781   -0.7872 H   0  0  0  0  0  0  0  0  0  0  0  0
    1.8607   -1.6993   -0.6021 H   0  0  0  0  0  0  0  0  0  0  0  0
    1.0876   -1.2150    0.9094 H   0  0  0  0  0  0  0  0  0  0  0  0
  8 13  1  0
  8 14  1  0
  6  8  1  0
  8  9  1  0
  6  7  2  0
  5  6  1  0
  5 12  1  0
  4  5  2  0
  3  4  1  0
  3 10  1  0
  2  3  1  0
  2  9  1  0
  4 11  1  0
  1  2  2  0
M  END
$$$$

     RDKit          3D

 18 19  0  0  0  0  0  0  0  0999 V2000
    1.2625    0.0817   -1.3406 N   0  0  0  0  0  0  0  0  0  0  0  0
    0.7828    0.7541   -0.1448 C   0  0  0  0  0  0  0  0  0  0  0  0
   -0.7354    1.0445   -0.2135 C   0  0  0  0  0  0  0  0  0  0  0  0
   -0.6554    0.7344    1.3017 C   0  0  0  0  0  0  0  0  0  0  0  0
    0.4492   -0.2116    1.0015 C   0  0  0  0  0  0  0  0  0  0  0  0
    0.6904   -1.6983    0.5013 C   0  0  0  0  0  0  0  0  0  0  0  0
   -0.4772   -1.6182    1.2760 N   0  0  0  0  0  0  0  0  0  0  0  0
   -1.4948    0.4383   -1.2854 C   0  0  0  0  0  0  0  0  0  0  0  0
   -1.8066    0.1411   -2.3913 N   0  0  0  0  0  0  0  0  0  0  0  0
    2.2685   -0.0976   -1.4094 H   0  0  0  0  0  0  0  0  0  0  0  0
    0.8862    0.2692   -2.2859 H   0  0  0  0  0  0  0  0  0  0  0  0
    1.1931    1.7203    0.0697 H   0  0  0  0  0  0  0  0  0  0  0  0
   -1.0402    2.0944   -0.3197 H   0  0  0  0  0  0  0  0  0  0  0  0
   -0.4321    1.6254    1.9319 H   0  0  0  0  0  0  0  0  0  0  0  0
   -1.5177    0.3420    1.9218 H   0  0  0  0  0  0  0  0  0  0  0  0
    0.4800   -1.9588   -0.5171 H   0  0  0  0  0  0  0  0  0  0  0  0
    1.5481   -2.3414    0.9032 H   0  0  0  0  0  0  0  0  0  0  0  0
   -1.4013   -1.3195    1.0008 H   0  0  0  0  0  0  0  0  0  0  0  0
  7 18  1  0
  1 10  1  0
  6  7  1  0
  5  7  1  0
  6 17  1  0
  2 12  1  0
  5  6  1  0
  6 16  1  0
  1 11  1  0
  1  2  1  0
  2  5  1  0
  2  3  1  0
  4  5  1  0
  4 14  1  0
  3  4  1  0
  4 15  1  0
  3  8  1  0
  3 13  1  0
  8  9  3  0
M  END
$$$$

     RDKit          3D

 16 16  0  0  0  0  0  0  0  0999 V2000
   -1.5180    2.5871    1.7629 O   0  0  0  0  0  0  0  0  0  0  0  0
   -0.8356    2.0021    0.9186 C   0  0  0  0  0  0  0  0  0  0  0  0
    0.3321    1.1255    1.2847 C   0  0  0  0  0  0  0  0  0  0  0  0
    0.0133   -0.3486    1.0706 C   0  0  0  0  0  0  0  0  0  0  0  0
    0.0898   -0.7774   -0.3541 C   0  0  0  0  0  0  0  0  0  0  0  0
   -0.7532   -0.3026   -1.2804 N   0  0  0  0  0  0  0  0  0  0  0  0
   -0.3538   -0.9656   -2.3825 N   0  0  0  0  0  0  0  0  0  0  0  0
    0.6830   -1.8093   -2.2642 N   0  0  0  0  0  0  0  0  0  0  0  0
    0.9670   -1.6981   -0.9626 C   0  0  0  0  0  0  0  0  0  0  0  0
   -1.0650    2.0862   -0.1582 H   0  0  0  0  0  0  0  0  0  0  0  0
    1.2056    1.4493    0.7091 H   0  0  0  0  0  0  0  0  0  0  0  0
    0.5455    1.2908    2.3483 H   0  0  0  0  0  0  0  0  0  0  0  0
   -0.9856   -0.5873    1.4651 H   0  0  0  0  0  0  0  0  0  0  0  0
    0.7293   -0.9424    1.6555 H   0  0  0  0  0  0  0  0  0  0  0  0
   -0.8272   -0.8335   -3.2780 H   0  0  0  0  0  0  0  0  0  0  0  0
    1.7729   -2.2762   -0.5350 H   0  0  0  0  0  0  0  0  0  0  0  0
  9 16  1  0
  8  9  2  0
  5  9  1  0
  4 13  1  0
  7  8  1  0
  4  5  1  0
  5  6  2  0
  4 14  1  0
  3  4  1  0
  6  7  1  0
  7 15  1  0
  3 12  1  0
  1  2  2  0
  2  3  1  0
  3 11  1  0
  2 10  1  0
M  END
$$$$

     RDKit          3D

 11 11  0  0  0  0  0  0  0  0999 V2000
   -1.5519    1.4678    0.9636 O   0  0  0  0  0  0  0  0  0  0  0  0
   -0.6390    1.1513    0.0346 C   0  0  0  0  0  0  0  0  0  0  0  0
    0.1931    0.0695    0.0887 C   0  0  0  0  0  0  0  0  0  0  0  0
    0.4256   -0.8788    0.9778 O   0  0  0  0  0  0  0  0  0  0  0  0
    0.7139   -2.1014    0.4873 C   0  0  0  0  0  0  0  0  0  0  0  0
    0.6875   -2.4893   -0.6705 O   0  0  0  0  0  0  0  0  0  0  0  0
    0.9919    0.1415   -1.0162 O   0  0  0  0  0  0  0  0  0  0  0  0
    0.5963    1.2614   -1.7609 N   0  0  0  0  0  0  0  0  0  0  0  0
   -0.3927    1.8580   -1.0990 N   0  0  0  0  0  0  0  0  0  0  0  0
   -1.9972    2.2792    0.6620 H   0  0  0  0  0  0  0  0  0  0  0  0
    0.9726   -2.7593    1.3324 H   0  0  0  0  0  0  0  0  0  0  0  0
  1  2  1  0
  1 10  1  0
  2  3  2  0
  2  9  1  0
  3  4  1  0
  3  7  1  0
  4  5  1  0
  5  6  2  0
  5 11  1  0
  7  8  1  0
  8  9  2  0
M  END
$$$$

     RDKit          3D

 21 22  0  0  0  0  0  0  0  0999 V2000
   -1.1240    2.2745    0.6362 C   0  0  0  0  0  0  0  0  0  0  0  0
   -0.5851    0.8564    0.5258 C   0  0  0  0  0  0  0  0  0  0  0  0
   -0.1741    0.1745    1.6740 O   0  0  0  0  0  0  0  0  0  0  0  0
    0.2322   -1.2727    1.4424 C   0  0  0  0  0  0  0  0  0  0  0  0
    1.6131   -1.5956    0.8891 C   0  0  0  0  0  0  0  0  0  0  0  0
    0.5337   -1.6125   -0.2496 C   0  0  0  0  0  0  0  0  0  0  0  0
   -0.3460   -0.7446   -1.0276 C   0  0  0  0  0  0  0  0  0  0  0  0
    0.1800    0.1947   -2.1255 C   0  0  0  0  0  0  0  0  0  0  0  0
   -1.4094   -0.0966   -0.4177 C   0  0  0  0  0  0  0  0  0  0  0  0
   -1.7946    2.3989    1.5274 H   0  0  0  0  0  0  0  0  0  0  0  0
   -0.3497    3.1450    0.5965 H   0  0  0  0  0  0  0  0  0  0  0  0
   -1.8424    2.4385   -0.2296 H   0  0  0  0  0  0  0  0  0  0  0  0
    0.5075    1.2041    0.1918 H   0  0  0  0  0  0  0  0  0  0  0  0
    0.3934   -1.8620    2.3523 H   0  0  0  0  0  0  0  0  0  0  0  0
    2.4605   -0.8345    0.9720 H   0  0  0  0  0  0  0  0  0  0  0  0
    1.9639   -2.6263    1.0841 H   0  0  0  0  0  0  0  0  0  0  0  0
    0.6802   -2.7487   -0.7379 H   0  0  0  0  0  0  0  0  0  0  0  0
   -0.6146    0.6826   -2.9107 H   0  0  0  0  0  0  0  0  0  0  0  0
    0.8745    0.9413   -1.6518 H   0  0  0  0  0  0  0  0  0  0  0  0
    0.9291   -0.2940   -2.8125 H   0  0  0  0  0  0  0  0  0  0  0  0
   -2.1283   -0.6230    0.2714 H   0  0  0  0  0  0  0  0  0  0  0  0
  4 14  1  0
  5 15  1  0
  3  4  1  0
  4  5  1  0
  4  6  1  0
  2  3  1  0
  5 16  1  0
  5  6  1  0
  1 11  1  0
  1 10  1  0
  1  2  1  0
  1 12  1  0
  2 13  1  0
  2  9  1  0
  6 17  1  0
  6  7  1  0
  7  9  2  0
  9 21  1  0
  7  8  1  0
  8 18  1  0
  8 20  1  0
  8 19  1  0
M  END
$$$$

     RDKit          3D

 19 21  0  0  0  0  0  0  0  0999 V2000
   -1.7664    0.4826   -1.2904 C   0  0  0  0  0  0  0  0  0  0  0  0
   -0.7426   -0.5955   -1.1725 C   0  0  0  0  0  0  0  0  0  0  0  0
   -0.7845   -1.5050    0.0338 O   0  0  0  0  0  0  0  0  0  0  0  0
    0.2060   -0.6376    0.6781 C   0  0  0  0  0  0  0  0  0  0  0  0
    1.7082   -0.6857    0.9987 C   0  0  0  0  0  0  0  0  0  0  0  0
    1.4093    0.7221    0.2239 C   0  0  0  0  0  0  0  0  0  0  0  0
    0.4254    1.4675    0.9434 O   0  0  0  0  0  0  0  0  0  0  0  0
   -0.4169    0.5095    1.4343 C   0  0  0  0  0  0  0  0  0  0  0  0
    0.7465   -0.2409   -0.8290 C   0  0  0  0  0  0  0  0  0  0  0  0
   -1.2599    1.4648   -1.0206 H   0  0  0  0  0  0  0  0  0  0  0  0
   -2.2222    0.6472   -2.2744 H   0  0  0  0  0  0  0  0  0  0  0  0
   -2.6159    0.3050   -0.5779 H   0  0  0  0  0  0  0  0  0  0  0  0
   -0.8954   -1.3286   -2.0381 H   0  0  0  0  0  0  0  0  0  0  0  0
    1.8759   -0.8602    2.0879 H   0  0  0  0  0  0  0  0  0  0  0  0
    2.5528   -1.1945    0.4750 H   0  0  0  0  0  0  0  0  0  0  0  0
    2.2487    1.3535   -0.0875 H   0  0  0  0  0  0  0  0  0  0  0  0
   -0.3380    0.4522    2.5461 H   0  0  0  0  0  0  0  0  0  0  0  0
   -1.4919    0.7485    1.1909 H   0  0  0  0  0  0  0  0  0  0  0  0
    1.3610   -1.1049   -1.3217 H   0  0  0  0  0  0  0  0  0  0  0  0
  1 11  1  0
  2  3  1  0
  3  4  1  0
  1 10  1  0
  1  2  1  0
  1 12  1  0
  2 13  1  0
  8 17  1  0
  2  9  1  0
  8 18  1  0
  4  8  1  0
  4  5  1  0
  4  9  1  0
  7  8  1  0
  5 15  1  0
  5 14  1  0
  5  6  1  0
  9 19  1  0
  6  9  1  0
  6  7  1  0
  6 16  1  0
M  END
$$$$

     RDKit          3D

 23 23  0  0  0  0  0  0  0  0999 V2000
   -0.6617    1.4918   -1.6325 C   0  0  0  0  0  0  0  0  0  0  0  0
   -0.9105    0.0507   -1.1864 C   0  0  0  0  0  0  0  0  0  0  0  0
    0.0345   -0.8135   -1.8482 O   0  0  0  0  0  0  0  0  0  0  0  0
    1.1258   -1.0464   -0.9318 C   0  0  0  0  0  0  0  0  0  0  0  0
    0.5689   -0.8915    0.4841 C   0  0  0  0  0  0  0  0  0  0  0  0
    1.5699   -0.1606    1.3785 C   0  0  0  0  0  0  0  0  0  0  0  0
    0.3937   -2.2017    1.0617 O   0  0  0  0  0  0  0  0  0  0  0  0
   -0.8084   -0.2443    0.3049 C   0  0  0  0  0  0  0  0  0  0  0  0
   -1.1359    0.9196    1.2358 C   0  0  0  0  0  0  0  0  0  0  0  0
   -0.7666    1.5572   -2.7246 H   0  0  0  0  0  0  0  0  0  0  0  0
    0.3545    1.8281   -1.3908 H   0  0  0  0  0  0  0  0  0  0  0  0
   -1.3907    2.1694   -1.1823 H   0  0  0  0  0  0  0  0  0  0  0  0
   -1.8943   -0.2469   -1.5542 H   0  0  0  0  0  0  0  0  0  0  0  0
    1.9243   -0.3195   -1.1502 H   0  0  0  0  0  0  0  0  0  0  0  0
    1.5142   -2.0578   -1.1357 H   0  0  0  0  0  0  0  0  0  0  0  0
    1.7374    0.8745    1.0724 H   0  0  0  0  0  0  0  0  0  0  0  0
    2.5390   -0.6825    1.3796 H   0  0  0  0  0  0  0  0  0  0  0  0
    1.2261   -0.1583    2.4285 H   0  0  0  0  0  0  0  0  0  0  0  0
   -0.1511   -2.7210    0.4394 H   0  0  0  0  0  0  0  0  0  0  0  0
   -1.5789   -1.0059    0.5214 H   0  0  0  0  0  0  0  0  0  0  0  0
   -0.4354    1.7517    1.1164 H   0  0  0  0  0  0  0  0  0  0  0  0
   -1.1074    0.6121    2.2853 H   0  0  0  0  0  0  0  0  0  0  0  0
   -2.1473    1.2946    1.0286 H   0  0  0  0  0  0  0  0  0  0  0  0
  4 15  1  0
  1 11  1  0
  3  4  1  0
  2  3  1  0
  4 14  1  0
  4  5  1  0
  1 10  1  0
  1  2  1  0
  1 12  1  0
  7 19  1  0
  2 13  1  0
  2  8  1  0
  5  7  1  0
  5  8  1  0
  5  6  1  0
  6 16  1  0
  8 20  1  0
  8  9  1  0
  6 18  1  0
  6 17  1  0
  9 21  1  0
  9 22  1  0
  9 23  1  0
M  END
$$$$

     RDKit          3D

 18 18  0  0  0  0  0  0  0  0999 V2000
    1.6842    2.1799   -1.5097 C   0  0  0  0  0  0  0  0  0  0  0  0
    1.5430    0.7934   -1.0638 N   0  0  0  0  0  0  0  0  0  0  0  0
    0.4637    0.7279   -0.0842 C   0  0  0  0  0  0  0  0  0  0  0  0
    0.7716   -0.3034    0.9926 C   0  0  0  0  0  0  0  0  0  0  0  0
    0.1271   -1.5460    0.4466 C   0  0  0  0  0  0  0  0  0  0  0  0
   -1.1008   -0.9943   -0.2458 C   0  0  0  0  0  0  0  0  0  0  0  0
   -0.7576    0.3233   -0.7197 O   0  0  0  0  0  0  0  0  0  0  0  0
   -2.2597   -0.9001    0.6566 C   0  0  0  0  0  0  0  0  0  0  0  0
   -3.1876   -0.8323    1.4177 C   0  0  0  0  0  0  0  0  0  0  0  0
    1.7305    2.8857   -0.6704 H   0  0  0  0  0  0  0  0  0  0  0  0
    0.8684    2.4744   -2.1939 H   0  0  0  0  0  0  0  0  0  0  0  0
    2.6367    2.2776   -2.0418 H   0  0  0  0  0  0  0  0  0  0  0  0
    0.3165    0.0189    1.9370 H   0  0  0  0  0  0  0  0  0  0  0  0
    1.8391   -0.4347    1.1856 H   0  0  0  0  0  0  0  0  0  0  0  0
   -0.0779   -2.3058    1.2096 H   0  0  0  0  0  0  0  0  0  0  0  0
    0.7917   -1.9954   -0.2984 H   0  0  0  0  0  0  0  0  0  0  0  0
   -1.3766   -1.6135   -1.1120 H   0  0  0  0  0  0  0  0  0  0  0  0
   -4.0123   -0.7557    2.0941 H   0  0  0  0  0  0  0  0  0  0  0  0
  9 18  1  0
  8  9  3  0
  6  8  1  0
  4 13  1  0
  1 10  1  0
  1 11  1  0
  6  7  1  0
  6 17  1  0
  5  6  1  0
  3  7  1  0
  1  2  1  0
  1 12  1  0
  2  3  1  0
  3  4  1  0
  4  5  1  0
  4 14  1  0
  5 15  1  0
  5 16  1  0
M  END
$$$$

     RDKit          3D

 17 17  0  0  0  0  0  0  0  0999 V2000
    0.5754   -1.9400    1.0198 C   0  0  0  0  0  0  0  0  0  0  0  0
    1.0425   -0.5799    1.1335 O   0  0  0  0  0  0  0  0  0  0  0  0
    0.6639    0.2787    0.0480 C   0  0  0  0  0  0  0  0  0  0  0  0
    1.6027    1.4358   -0.1877 C   0  0  0  0  0  0  0  0  0  0  0  0
    1.5530    0.2778   -1.1663 C   0  0  0  0  0  0  0  0  0  0  0  0
   -0.7566    0.5026   -0.0750 C   0  0  0  0  0  0  0  0  0  0  0  0
   -1.9489    0.6348   -0.1369 C   0  0  0  0  0  0  0  0  0  0  0  0
   -3.3980    0.7414   -0.1416 C   0  0  0  0  0  0  0  0  0  0  0  0
   -3.9893    1.0394    0.8858 O   0  0  0  0  0  0  0  0  0  0  0  0
    1.2894   -2.5686    0.4619 H   0  0  0  0  0  0  0  0  0  0  0  0
    0.5010   -2.3307    2.0409 H   0  0  0  0  0  0  0  0  0  0  0  0
   -0.4107   -2.0034    0.5402 H   0  0  0  0  0  0  0  0  0  0  0  0
    2.4515    1.5111    0.4938 H   0  0  0  0  0  0  0  0  0  0  0  0
    1.2008    2.3895   -0.5032 H   0  0  0  0  0  0  0  0  0  0  0  0
    1.1291    0.4954   -2.1375 H   0  0  0  0  0  0  0  0  0  0  0  0
    2.4126   -0.3824   -1.1872 H   0  0  0  0  0  0  0  0  0  0  0  0
   -3.9184    0.4984   -1.0885 H   0  0  0  0  0  0  0  0  0  0  0  0
  8  9  2  0
  8 17  1  0
  7  8  1  0
  6  7  3  0
  3  6  1  0
  5 16  1  0
  4 13  1  0
  3  5  1  0
  3  4  1  0
  2  3  1  0
  4  5  1  0
  5 15  1  0
  4 14  1  0
  1 11  1  0
  1  2  1  0
  1 10  1  0
  1 12  1  0
M  END
$$$$

     RDKit          3D

 21 20  0  0  0  0  0  0  0  0999 V2000
    0.9754    0.7701    2.0815 C   0  0  0  0  0  0  0  0  0  0  0  0
   -0.2151   -0.0071    1.5318 C   0  0  0  0  0  0  0  0  0  0  0  0
   -0.9514    0.7133    0.3848 C   0  0  0  0  0  0  0  0  0  0  0  0
   -2.0202   -0.1056   -0.0940 O   0  0  0  0  0  0  0  0  0  0  0  0
   -0.1104    1.1708   -0.8124 C   0  0  0  0  0  0  0  0  0  0  0  0
    0.3011    0.0715   -1.7874 C   0  0  0  0  0  0  0  0  0  0  0  0
    0.8255   -1.0386   -1.0567 O   0  0  0  0  0  0  0  0  0  0  0  0
    0.4276   -2.2418   -1.5172 C   0  0  0  0  0  0  0  0  0  0  0  0
    0.1260   -3.1706   -0.7713 O   0  0  0  0  0  0  0  0  0  0  0  0
    1.7771    0.8183    1.3387 H   0  0  0  0  0  0  0  0  0  0  0  0
    1.3644    0.2528    2.9703 H   0  0  0  0  0  0  0  0  0  0  0  0
    0.6742    1.7912    2.3571 H   0  0  0  0  0  0  0  0  0  0  0  0
   -0.9285   -0.1573    2.3620 H   0  0  0  0  0  0  0  0  0  0  0  0
    0.0964   -1.0234    1.2439 H   0  0  0  0  0  0  0  0  0  0  0  0
   -1.4250    1.6076    0.8137 H   0  0  0  0  0  0  0  0  0  0  0  0
   -1.9044   -0.9923    0.2986 H   0  0  0  0  0  0  0  0  0  0  0  0
   -0.6968    1.8944   -1.4038 H   0  0  0  0  0  0  0  0  0  0  0  0
    0.7740    1.7063   -0.4477 H   0  0  0  0  0  0  0  0  0  0  0  0
    1.0758    0.4492   -2.4650 H   0  0  0  0  0  0  0  0  0  0  0  0
   -0.5590   -0.2274   -2.3979 H   0  0  0  0  0  0  0  0  0  0  0  0
    0.3935   -2.2815   -2.6290 H   0  0  0  0  0  0  0  0  0  0  0  0
  6 19  1  0
  8  9  2  0
  8 21  1  0
  7  8  1  0
  6  7  1  0
  6 20  1  0
  5  6  1  0
  3 15  1  0
  5 18  1  0
  3  5  1  0
  5 17  1  0
  3  4  1  0
  4 16  1  0
  2  3  1  0
  1 11  1  0
  2 14  1  0
  1  2  1  0
  2 13  1  0
  1 10  1  0
  1 12  1  0
M  END
$$$$

     RDKit          3D

 17 18  0  0  0  0  0  0  0  0999 V2000
   -1.9728    0.0775    0.9195 O   0  0  0  0  0  0  0  0  0  0  0  0
   -0.5530    0.0841    0.7112 C   0  0  0  0  0  0  0  0  0  0  0  0
   -0.2870    0.8505   -0.5541 C   0  0  0  0  0  0  0  0  0  0  0  0
    0.2418    2.2634   -0.4643 C   0  0  0  0  0  0  0  0  0  0  0  0
    1.0499    1.1761   -1.0336 N   0  0  0  0  0  0  0  0  0  0  0  0
   -0.0832   -1.3482    0.7561 C   0  0  0  0  0  0  0  0  0  0  0  0
    0.8001   -2.0309   -0.2676 C   0  0  0  0  0  0  0  0  0  0  0  0
   -0.6307   -2.1951   -0.2812 O   0  0  0  0  0  0  0  0  0  0  0  0
   -2.3178   -0.6187    0.3096 H   0  0  0  0  0  0  0  0  0  0  0  0
   -0.1232    0.6076    1.5792 H   0  0  0  0  0  0  0  0  0  0  0  0
   -1.0050    0.6278   -1.3307 H   0  0  0  0  0  0  0  0  0  0  0  0
    0.6361    2.6710    0.4445 H   0  0  0  0  0  0  0  0  0  0  0  0
   -0.1208    2.9992   -1.1858 H   0  0  0  0  0  0  0  0  0  0  0  0
    1.7972    0.8916   -0.3892 H   0  0  0  0  0  0  0  0  0  0  0  0
   -0.1022   -1.7440    1.7705 H   0  0  0  0  0  0  0  0  0  0  0  0
    1.4255   -2.8452    0.0929 H   0  0  0  0  0  0  0  0  0  0  0  0
    1.2451   -1.4666   -1.0771 H   0  0  0  0  0  0  0  0  0  0  0  0
  4 12  1  0
  5 14  1  0
  4  5  1  0
  3  5  1  0
  4 13  1  0
  3  4  1  0
  3 11  1  0
  2  3  1  0
  2 10  1  0
  1  2  1  0
  2  6  1  0
  1  9  1  0
  6  8  1  0
  6 15  1  0
  6  7  1  0
  7  8  1  0
  7 17  1  0
  7 16  1  0
M  END
$$$$

     RDKit          3D

 22 23  0  0  0  0  0  0  0  0999 V2000
    0.7474    1.9965   -0.1974 C   0  0  0  0  0  0  0  0  0  0  0  0
    1.1380    0.5381   -0.0878 C   0  0  0  0  0  0  0  0  0  0  0  0
    2.5667    0.3198    0.3518 C   0  0  0  0  0  0  0  0  0  0  0  0
    0.6574   -0.3696   -1.2034 C   0  0  0  0  0  0  0  0  0  0  0  0
    0.1941   -0.5694    0.1692 N   0  0  0  0  0  0  0  0  0  0  0  0
   -1.2372   -0.2777    0.3604 C   0  0  0  0  0  0  0  0  0  0  0  0
   -2.1318   -1.0701   -0.6078 C   0  0  0  0  0  0  0  0  0  0  0  0
   -2.8952   -1.6381    0.5019 O   0  0  0  0  0  0  0  0  0  0  0  0
   -1.8041   -1.2645    1.3998 C   0  0  0  0  0  0  0  0  0  0  0  0
    1.4234    2.6134    0.4102 H   0  0  0  0  0  0  0  0  0  0  0  0
   -0.2629    2.2151    0.1602 H   0  0  0  0  0  0  0  0  0  0  0  0
    0.8442    2.3503   -1.2266 H   0  0  0  0  0  0  0  0  0  0  0  0
    2.7852   -0.7396    0.5206 H   0  0  0  0  0  0  0  0  0  0  0  0
    2.7840    0.8832    1.2832 H   0  0  0  0  0  0  0  0  0  0  0  0
    3.2706    0.6742   -0.4206 H   0  0  0  0  0  0  0  0  0  0  0  0
    1.3354   -1.1268   -1.5839 H   0  0  0  0  0  0  0  0  0  0  0  0
   -0.0440    0.0152   -1.9362 H   0  0  0  0  0  0  0  0  0  0  0  0
   -1.5498    0.7467    0.5483 H   0  0  0  0  0  0  0  0  0  0  0  0
   -1.6586   -1.8766   -1.1767 H   0  0  0  0  0  0  0  0  0  0  0  0
   -2.7603   -0.4596   -1.2557 H   0  0  0  0  0  0  0  0  0  0  0  0
   -1.2183   -2.1512    1.6693 H   0  0  0  0  0  0  0  0  0  0  0  0
   -2.1842   -0.8095    2.3213 H   0  0  0  0  0  0  0  0  0  0  0  0
  3 13  1  0
  1 11  1  0
  4 16  1  0
  3 14  1  0
  2  3  1  0
  3 15  1  0
  1 10  1  0
  1  2  1  0
  1 12  1  0
  4 17  1  0
  2  4  1  0
  4  5  1  0
  2  5  1  0
  5  6  1  0
  6 18  1  0
  6  9  1  0
  6  7  1  0
  9 21  1  0
  9 22  1  0
  8  9  1  0
  7 20  1  0
  7 19  1  0
  7  8  1  0
M  END
$$$$

     RDKit          3D

 19 21  0  0  0  0  0  0  0  0999 V2000
   -1.0523    0.8007   -0.8975 C   0  0  0  0  0  0  0  0  0  0  0  0
    0.2494    0.3646   -1.5834 C   0  0  0  0  0  0  0  0  0  0  0  0
    1.2814   -0.2836   -0.6625 C   0  0  0  0  0  0  0  0  0  0  0  0
    0.8420   -1.6059   -0.2327 O   0  0  0  0  0  0  0  0  0  0  0  0
    0.6451   -1.1121    1.1080 C   0  0  0  0  0  0  0  0  0  0  0  0
   -0.5271   -0.1641    1.4074 C   0  0  0  0  0  0  0  0  0  0  0  0
   -1.5584   -0.0393    0.2859 C   0  0  0  0  0  0  0  0  0  0  0  0
    0.3814    0.9781    1.4312 O   0  0  0  0  0  0  0  0  0  0  0  0
    1.4125    0.1717    0.8020 C   0  0  0  0  0  0  0  0  0  0  0  0
   -0.9185    1.8422   -0.5566 H   0  0  0  0  0  0  0  0  0  0  0  0
   -1.8454    0.8548   -1.6577 H   0  0  0  0  0  0  0  0  0  0  0  0
    0.7005    1.2632   -2.0454 H   0  0  0  0  0  0  0  0  0  0  0  0
    0.0189   -0.3280   -2.4156 H   0  0  0  0  0  0  0  0  0  0  0  0
    2.2548   -0.3615   -1.1711 H   0  0  0  0  0  0  0  0  0  0  0  0
    1.0422   -1.7447    1.9014 H   0  0  0  0  0  0  0  0  0  0  0  0
   -0.9920   -0.3250    2.3912 H   0  0  0  0  0  0  0  0  0  0  0  0
   -1.8805   -1.0376   -0.0508 H   0  0  0  0  0  0  0  0  0  0  0  0
   -2.4524    0.4601    0.6820 H   0  0  0  0  0  0  0  0  0  0  0  0
    2.3983    0.2663    1.2641 H   0  0  0  0  0  0  0  0  0  0  0  0
  1 11  1  0
  2 12  1  0
  7 18  1  0
  2 13  1  0
  1  2  1  0
  1  7  1  0
  1 10  1  0
  2  3  1  0
  7 17  1  0
  6  7  1  0
  6  8  1  0
  8  9  1  0
  6 16  1  0
  5  6  1  0
  3 14  1  0
  3  9  1  0
  3  4  1  0
  9 19  1  0
  5  9  1  0
  4  5  1  0
  5 15  1  0
M  END
$$$$

     RDKit          3D

 15 16  0  0  0  0  0  0  0  0999 V2000
   -0.6890    0.2343   -2.6588 O   0  0  0  0  0  0  0  0  0  0  0  0
   -0.2036    0.1009   -1.5461 C   0  0  0  0  0  0  0  0  0  0  0  0
    1.3047   -0.0003   -1.2286 C   0  0  0  0  0  0  0  0  0  0  0  0
    1.4267    0.0567    0.3511 C   0  0  0  0  0  0  0  0  0  0  0  0
    0.0089    0.0064    0.7422 C   0  0  0  0  0  0  0  0  0  0  0  0
   -0.8922    0.0011   -0.2935 C   0  0  0  0  0  0  0  0  0  0  0  0
   -2.1326   -0.0922    0.3037 C   0  0  0  0  0  0  0  0  0  0  0  0
   -2.0263   -0.2941    1.6243 N   0  0  0  0  0  0  0  0  0  0  0  0
   -0.7079   -0.0445    1.8791 N   0  0  0  0  0  0  0  0  0  0  0  0
    1.8593    0.8573   -1.6177 H   0  0  0  0  0  0  0  0  0  0  0  0
    1.6751   -0.9544   -1.6403 H   0  0  0  0  0  0  0  0  0  0  0  0
    1.8967    0.9861    0.7054 H   0  0  0  0  0  0  0  0  0  0  0  0
    2.0335   -0.8000    0.6793 H   0  0  0  0  0  0  0  0  0  0  0  0
   -3.1248   -0.1583   -0.1503 H   0  0  0  0  0  0  0  0  0  0  0  0
   -0.4284    0.1011    2.8501 H   0  0  0  0  0  0  0  0  0  0  0  0
  4 12  1  0
  3 10  1  0
  7 14  1  0
  7  8  2  0
  8  9  1  0
  6  7  1  0
  9 15  1  0
  5  9  1  0
  5  6  2  0
  2  6  1  0
  1  2  2  0
  4  5  1  0
  2  3  1  0
  3  4  1  0
  4 13  1  0
  3 11  1  0
M  END
$$$$

     RDKit          3D

 15 15  0  0  0  0  0  0  0  0999 V2000
    0.0721   -1.7034   -1.1290 C   0  0  0  0  0  0  0  0  0  0  0  0
    0.0898   -0.5324   -0.2288 C   0  0  0  0  0  0  0  0  0  0  0  0
   -0.5490    0.6831   -0.2377 C   0  0  0  0  0  0  0  0  0  0  0  0
   -1.3812    1.1453   -1.1667 N   0  0  0  0  0  0  0  0  0  0  0  0
   -0.2475    1.4461    0.8438 N   0  0  0  0  0  0  0  0  0  0  0  0
    0.5818    0.7031    1.5215 C   0  0  0  0  0  0  0  0  0  0  0  0
    1.1129    1.0769    2.6658 O   0  0  0  0  0  0  0  0  0  0  0  0
    0.8281   -0.4963    0.9297 N   0  0  0  0  0  0  0  0  0  0  0  0
   -0.4260   -1.4730   -2.0754 H   0  0  0  0  0  0  0  0  0  0  0  0
   -0.4610   -2.5359   -0.6591 H   0  0  0  0  0  0  0  0  0  0  0  0
    1.0894   -2.0343   -1.3585 H   0  0  0  0  0  0  0  0  0  0  0  0
   -1.5820    2.1309   -1.0850 H   0  0  0  0  0  0  0  0  0  0  0  0
   -1.2194    0.8855   -2.1389 H   0  0  0  0  0  0  0  0  0  0  0  0
    0.6674    1.9225    2.8158 H   0  0  0  0  0  0  0  0  0  0  0  0
    1.4245   -1.2181    1.3024 H   0  0  0  0  0  0  0  0  0  0  0  0
  4 13  1  0
  4 12  1  0
  3  4  1  0
  3  5  1  0
  2  3  2  0
  1 10  1  0
  5  6  2  0
  1  2  1  0
  2  8  1  0
  1 11  1  0
  1  9  1  0
  6  8  1  0
  6  7  1  0
  7 14  1  0
  8 15  1  0
M  END
$$$$

     RDKit          3D

 16 16  0  0  0  0  0  0  0  0999 V2000
    0.6690   -0.4763    2.7513 C   0  0  0  0  0  0  0  0  0  0  0  0
   -0.0354   -1.2576    1.7811 O   0  0  0  0  0  0  0  0  0  0  0  0
   -0.1458   -0.6866    0.5672 C   0  0  0  0  0  0  0  0  0  0  0  0
    0.2832    0.4793    0.1906 N   0  0  0  0  0  0  0  0  0  0  0  0
   -0.0901    0.5274   -1.1386 N   0  0  0  0  0  0  0  0  0  0  0  0
    0.1310    1.6814   -1.9652 C   0  0  0  0  0  0  0  0  0  0  0  0
   -0.7514   -0.6481   -1.4987 C   0  0  0  0  0  0  0  0  0  0  0  0
   -1.2151   -0.9541   -2.5842 O   0  0  0  0  0  0  0  0  0  0  0  0
   -0.7730   -1.4116   -0.3704 N   0  0  0  0  0  0  0  0  0  0  0  0
    0.4784   -0.9111    3.7391 H   0  0  0  0  0  0  0  0  0  0  0  0
    0.3169    0.5655    2.7619 H   0  0  0  0  0  0  0  0  0  0  0  0
    1.7506   -0.5162    2.5477 H   0  0  0  0  0  0  0  0  0  0  0  0
   -0.0971    1.4477   -3.0068 H   0  0  0  0  0  0  0  0  0  0  0  0
    1.1754    1.9964   -1.8785 H   0  0  0  0  0  0  0  0  0  0  0  0
   -0.5230    2.4899   -1.6199 H   0  0  0  0  0  0  0  0  0  0  0  0
   -1.1736   -2.3257   -0.2764 H   0  0  0  0  0  0  0  0  0  0  0  0
  6 13  1  0
  6 15  1  0
  6 14  1  0
  5  6  1  0
  7  8  2  0
  5  7  1  0
  4  5  1  0
  7  9  1  0
  3  4  2  0
  3  9  1  0
  9 16  1  0
  2  3  1  0
  1 11  1  0
  1  2  1  0
  1 10  1  0
  1 12  1  0
M  END
$$$$

     RDKit          3D

 18 20  0  0  0  0  0  0  0  0999 V2000
    0.0971    2.2808    1.2445 C   0  0  0  0  0  0  0  0  0  0  0  0
   -0.6378    1.0666    1.1944 O   0  0  0  0  0  0  0  0  0  0  0  0
   -0.1970    0.0912    0.2314 C   0  0  0  0  0  0  0  0  0  0  0  0
    1.2464   -0.5239    0.3441 C   0  0  0  0  0  0  0  0  0  0  0  0
    0.6825   -1.8777    0.1321 N   0  0  0  0  0  0  0  0  0  0  0  0
   -0.4042   -1.9915   -0.8952 C   0  0  0  0  0  0  0  0  0  0  0  0
   -0.6156   -0.8714   -1.8367 C   0  0  0  0  0  0  0  0  0  0  0  0
   -0.5630    0.3306   -1.2254 C   0  0  0  0  0  0  0  0  0  0  0  0
   -0.6237   -1.3388    0.4318 C   0  0  0  0  0  0  0  0  0  0  0  0
    1.1204    2.0873    1.5784 H   0  0  0  0  0  0  0  0  0  0  0  0
   -0.3872    2.9489    1.9628 H   0  0  0  0  0  0  0  0  0  0  0  0
    0.1087    2.7691    0.2664 H   0  0  0  0  0  0  0  0  0  0  0  0
    1.9686   -0.2073   -0.4184 H   0  0  0  0  0  0  0  0  0  0  0  0
    1.7204   -0.4010    1.3250 H   0  0  0  0  0  0  0  0  0  0  0  0
   -0.8347   -2.9622   -1.0871 H   0  0  0  0  0  0  0  0  0  0  0  0
   -0.8308   -1.0246   -2.8848 H   0  0  0  0  0  0  0  0  0  0  0  0
   -0.7154    1.2968   -1.6772 H   0  0  0  0  0  0  0  0  0  0  0  0
   -1.1349   -1.6730    1.3139 H   0  0  0  0  0  0  0  0  0  0  0  0
  7 16  1  0
  8 17  1  0
  7  8  2  0
  6  7  1  0
  3  8  1  0
  1 11  1  0
  6 15  1  0
  6  9  1  0
  5  6  1  0
  2  3  1  0
  1  2  1  0
  3  9  1  0
  3  4  1  0
  9 18  1  0
  5  9  1  0
  1 10  1  0
  1 12  1  0
  4  5  1  0
  4 14  1  0
  4 13  1  0
M  END
$$$$

     RDKit          3D

 16 16  0  0  0  0  0  0  0  0999 V2000
    1.2828    0.2400    1.3952 O   0  0  0  0  0  0  0  0  0  0  0  0
    0.4550   -0.1622    0.2188 C   0  0  0  0  0  0  0  0  0  0  0  0
   -0.8677   -0.5938    0.8303 C   0  0  0  0  0  0  0  0  0  0  0  0
   -1.6776    0.0693   -0.2374 C   0  0  0  0  0  0  0  0  0  0  0  0
   -0.4164    0.8305   -0.5285 C   0  0  0  0  0  0  0  0  0  0  0  0
   -0.3460    2.2038   -0.1998 C   0  0  0  0  0  0  0  0  0  0  0  0
   -0.2295    3.3914   -0.1296 N   0  0  0  0  0  0  0  0  0  0  0  0
    1.2130   -1.1545   -0.4712 C   0  0  0  0  0  0  0  0  0  0  0  0
    2.1791   -1.7688   -0.9257 C   0  0  0  0  0  0  0  0  0  0  0  0
    2.2065   -0.0568    1.1782 H   0  0  0  0  0  0  0  0  0  0  0  0
   -1.1758    0.0536    1.7971 H   0  0  0  0  0  0  0  0  0  0  0  0
   -0.9790   -1.6153    1.2742 H   0  0  0  0  0  0  0  0  0  0  0  0
   -1.9351   -0.6042   -1.1293 H   0  0  0  0  0  0  0  0  0  0  0  0
   -2.5893    0.5895    0.1149 H   0  0  0  0  0  0  0  0  0  0  0  0
   -0.1864    0.6901   -1.6986 H   0  0  0  0  0  0  0  0  0  0  0  0
    3.0665   -2.1124   -1.4885 H   0  0  0  0  0  0  0  0  0  0  0  0
  9 16  1  0
  8  9  3  0
  6  7  3  0
  2  8  1  0
  1 10  1  0
  5  6  1  0
  5 15  1  0
  2  5  1  0
  4  5  1  0
  1  2  1  0
  2  3  1  0
  3 11  1  0
  3  4  1  0
  3 12  1  0
  4 14  1  0
  4 13  1  0
M  END
$$$$

     RDKit          3D

 16 17  0  0  0  0  0  0  0  0999 V2000
   -2.1101   -0.5284    0.2912 C   0  0  0  0  0  0  0  0  0  0  0  0
   -0.6433   -0.5201   -0.1455 C   0  0  0  0  0  0  0  0  0  0  0  0
    0.2426   -0.6249    1.0790 C   0  0  0  0  0  0  0  0  0  0  0  0
    0.3659    0.9285    1.0172 C   0  0  0  0  0  0  0  0  0  0  0  0
    0.4893    1.8850    1.7456 O   0  0  0  0  0  0  0  0  0  0  0  0
    0.4346    0.8556   -0.4467 C   0  0  0  0  0  0  0  0  0  0  0  0
   -0.5671    0.3406   -1.2868 N   0  0  0  0  0  0  0  0  0  0  0  0
    1.7642    0.6752   -1.0004 C   0  0  0  0  0  0  0  0  0  0  0  0
    2.8680    0.5343   -1.4515 C   0  0  0  0  0  0  0  0  0  0  0  0
   -2.3380    0.3068    0.9635 H   0  0  0  0  0  0  0  0  0  0  0  0
   -2.7870   -0.4732   -0.5728 H   0  0  0  0  0  0  0  0  0  0  0  0
   -2.3287   -1.4668    0.8128 H   0  0  0  0  0  0  0  0  0  0  0  0
   -0.2390   -1.0087    1.9870 H   0  0  0  0  0  0  0  0  0  0  0  0
    1.1813   -1.1706    0.9495 H   0  0  0  0  0  0  0  0  0  0  0  0
   -0.1847   -0.1527   -2.0975 H   0  0  0  0  0  0  0  0  0  0  0  0
    3.8519    0.4194   -1.8446 H   0  0  0  0  0  0  0  0  0  0  0  0
  3 14  1  0
  1 11  1  0
  7 15  1  0
  2  7  1  0
  6  7  1  0
  2  3  1  0
  3 13  1  0
  3  4  1  0
  1  2  1  0
  1 10  1  0
  1 12  1  0
  2  6  1  0
  4  6  1  0
  4  5  2  0
  6  8  1  0
  8  9  3  0
  9 16  1  0
M  END
$$$$

     RDKit          3D

 18 18  0  0  0  0  0  0  0  0999 V2000
    0.9973   -2.1043    0.1297 O   0  0  0  0  0  0  0  0  0  0  0  0
    1.7299   -0.9787   -0.5058 C   0  0  0  0  0  0  0  0  0  0  0  0
    0.7651    0.0246   -1.1308 C   0  0  0  0  0  0  0  0  0  0  0  0
   -0.3079    0.6509   -0.2435 C   0  0  0  0  0  0  0  0  0  0  0  0
   -1.0867    1.5688   -1.0789 O   0  0  0  0  0  0  0  0  0  0  0  0
   -0.2404    1.3592    1.1378 C   0  0  0  0  0  0  0  0  0  0  0  0
   -0.7525   -0.0544    0.9974 C   0  0  0  0  0  0  0  0  0  0  0  0
   -2.0933   -0.4298    1.0424 C   0  0  0  0  0  0  0  0  0  0  0  0
   -3.2220   -0.8230    1.0767 N   0  0  0  0  0  0  0  0  0  0  0  0
    0.2756   -2.3834   -0.4551 H   0  0  0  0  0  0  0  0  0  0  0  0
    2.3694   -0.4957    0.2437 H   0  0  0  0  0  0  0  0  0  0  0  0
    2.3963   -1.4141   -1.2840 H   0  0  0  0  0  0  0  0  0  0  0  0
    1.3761    0.7768   -1.6251 H   0  0  0  0  0  0  0  0  0  0  0  0
    0.1557   -0.4190   -1.9527 H   0  0  0  0  0  0  0  0  0  0  0  0
   -1.9694    1.7223   -0.7123 H   0  0  0  0  0  0  0  0  0  0  0  0
   -1.0588    2.1312    1.2896 H   0  0  0  0  0  0  0  0  0  0  0  0
    0.7255    1.5623    1.5510 H   0  0  0  0  0  0  0  0  0  0  0  0
   -0.0597   -0.6939    1.5197 H   0  0  0  0  0  0  0  0  0  0  0  0
  3 14  1  0
  5 15  1  0
  4  5  1  0
  1 10  1  0
  7 18  1  0
  2 11  1  0
  3  4  1  0
  2  3  1  0
  3 13  1  0
  4  7  1  0
  4  6  1  0
  7  8  1  0
  6  7  1  0
  8  9  3  0
  1  2  1  0
  2 12  1  0
  6 16  1  0
  6 17  1  0
M  END
$$$$

     RDKit          3D

 17 17  0  0  0  0  0  0  0  0999 V2000
    0.0336    1.7495   -0.1303 C   0  0  0  0  0  0  0  0  0  0  0  0
    0.1723    0.2545   -0.2491 C   0  0  0  0  0  0  0  0  0  0  0  0
    0.0265   -0.2656   -1.6592 C   0  0  0  0  0  0  0  0  0  0  0  0
    1.1943   -0.4056    0.6572 C   0  0  0  0  0  0  0  0  0  0  0  0
   -0.2726   -0.6398    0.9074 C   0  0  0  0  0  0  0  0  0  0  0  0
   -0.8112    0.0230    2.0661 O   0  0  0  0  0  0  0  0  0  0  0  0
   -0.8102   -1.9521    0.6734 C   0  0  0  0  0  0  0  0  0  0  0  0
   -1.2470   -3.0035    0.4605 N   0  0  0  0  0  0  0  0  0  0  0  0
   -0.1907    2.0641    0.8930 H   0  0  0  0  0  0  0  0  0  0  0  0
   -0.7631    2.1278   -0.7887 H   0  0  0  0  0  0  0  0  0  0  0  0
    0.9748    2.2293   -0.4264 H   0  0  0  0  0  0  0  0  0  0  0  0
   -1.0045   -0.5901   -1.8460 H   0  0  0  0  0  0  0  0  0  0  0  0
    0.2612    0.5182   -2.3986 H   0  0  0  0  0  0  0  0  0  0  0  0
    0.7029   -1.1153   -1.8468 H   0  0  0  0  0  0  0  0  0  0  0  0
    1.7901   -1.2259    0.2689 H   0  0  0  0  0  0  0  0  0  0  0  0
    1.7292    0.1978    1.3807 H   0  0  0  0  0  0  0  0  0  0  0  0
   -1.7855    0.0338    2.0381 H   0  0  0  0  0  0  0  0  0  0  0  0
  3 12  1  0
  1 10  1  0
  4 15  1  0
  3 13  1  0
  3 14  1  0
  2  3  1  0
  4 16  1  0
  2  4  1  0
  4  5  1  0
  1  2  1  0
  2  5  1  0
  1  9  1  0
  1 11  1  0
  5  7  1  0
  5  6  1  0
  7  8  3  0
  6 17  1  0
M  END
$$$$

     RDKit          3D

 23 23  0  0  0  0  0  0  0  0999 V2000
    2.0836    0.2594   -1.3946 C   0  0  0  0  0  0  0  0  0  0  0  0
    0.9907   -0.3141   -0.5400 C   0  0  0  0  0  0  0  0  0  0  0  0
   -0.4264   -0.2906   -1.1921 C   0  0  0  0  0  0  0  0  0  0  0  0
   -1.6108   -0.1947   -0.2171 C   0  0  0  0  0  0  0  0  0  0  0  0
   -1.7667    1.1673    0.4209 C   0  0  0  0  0  0  0  0  0  0  0  0
   -1.9711    1.0580    1.9190 C   0  0  0  0  0  0  0  0  0  0  0  0
   -1.2260    1.6498    2.7213 O   0  0  0  0  0  0  0  0  0  0  0  0
    1.3391   -0.3049    0.9643 C   0  0  0  0  0  0  0  0  0  0  0  0
    1.2899   -1.5983    0.1917 C   0  0  0  0  0  0  0  0  0  0  0  0
    2.7706   -0.5086   -1.7389 H   0  0  0  0  0  0  0  0  0  0  0  0
    2.6282    0.9910   -0.8217 H   0  0  0  0  0  0  0  0  0  0  0  0
    1.7472    0.8503   -2.2547 H   0  0  0  0  0  0  0  0  0  0  0  0
   -0.5203   -1.2332   -1.7519 H   0  0  0  0  0  0  0  0  0  0  0  0
   -0.5152    0.4806   -1.9669 H   0  0  0  0  0  0  0  0  0  0  0  0
   -2.5139   -0.4640   -0.7893 H   0  0  0  0  0  0  0  0  0  0  0  0
   -1.5691   -1.0004    0.5119 H   0  0  0  0  0  0  0  0  0  0  0  0
   -2.6657    1.7005    0.0711 H   0  0  0  0  0  0  0  0  0  0  0  0
   -0.8542    1.7593    0.2295 H   0  0  0  0  0  0  0  0  0  0  0  0
   -2.8448    0.4518    2.2511 H   0  0  0  0  0  0  0  0  0  0  0  0
    0.5747   -0.0795    1.6677 H   0  0  0  0  0  0  0  0  0  0  0  0
    2.3530   -0.0371    1.2706 H   0  0  0  0  0  0  0  0  0  0  0  0
    0.4664   -2.2554    0.4699 H   0  0  0  0  0  0  0  0  0  0  0  0
    2.2409   -2.0868   -0.0218 H   0  0  0  0  0  0  0  0  0  0  0  0
  6 19  1  0
  6  7  2  0
  5  6  1  0
  4 16  1  0
  5 17  1  0
  4  5  1  0
  5 18  1  0
  4 15  1  0
  3  4  1  0
  8 20  1  0
  3 13  1  0
  8 21  1  0
  2  3  1  0
  3 14  1  0
  2  8  1  0
  8  9  1  0
  1 11  1  0
  1  2  1  0
  2  9  1  0
  1 10  1  0
  1 12  1  0
  9 23  1  0
  9 22  1  0
M  END
$$$$

     RDKit          3D

 17 18  0  0  0  0  0  0  0  0999 V2000
   -2.5307    1.5141    1.1845 C   0  0  0  0  0  0  0  0  0  0  0  0
   -1.4789    0.9638    1.5034 C   0  0  0  0  0  0  0  0  0  0  0  0
   -0.6106   -0.1363    1.0857 C   0  0  0  0  0  0  0  0  0  0  0  0
    0.8469    0.6239    0.8498 C   0  0  0  0  0  0  0  0  0  0  0  0
    1.1590    1.2295   -0.4662 O   0  0  0  0  0  0  0  0  0  0  0  0
    0.4567    0.4637   -1.5120 C   0  0  0  0  0  0  0  0  0  0  0  0
    0.8219   -0.9795   -1.6084 C   0  0  0  0  0  0  0  0  0  0  0  0
    1.2692   -1.5245   -0.4575 C   0  0  0  0  0  0  0  0  0  0  0  0
    0.7811   -0.7864    0.8966 C   0  0  0  0  0  0  0  0  0  0  0  0
   -3.4718    1.9415    0.6863 H   0  0  0  0  0  0  0  0  0  0  0  0
   -1.2453   -0.7696    0.1424 H   0  0  0  0  0  0  0  0  0  0  0  0
    1.3030    1.1270    1.7878 H   0  0  0  0  0  0  0  0  0  0  0  0
   -0.6626    0.4229   -1.3358 H   0  0  0  0  0  0  0  0  0  0  0  0
    0.2271    1.1945   -2.3247 H   0  0  0  0  0  0  0  0  0  0  0  0
   -0.1448   -1.5612   -1.8143 H   0  0  0  0  0  0  0  0  0  0  0  0
    2.0337   -2.3435   -0.3346 H   0  0  0  0  0  0  0  0  0  0  0  0
    1.2462   -1.3798    1.7169 H   0  0  0  0  0  0  0  0  0  0  0  0
  8 16  1  0
  9 17  1  0
  3 11  1  0
  3  9  1  0
  8  9  1  0
  4  9  1  0
  2  3  1  0
  3  4  1  0
  7  8  2  0
  1  2  3  0
  1 10  1  0
  7 15  1  0
  6  7  1  0
  4 12  1  0
  4  5  1  0
  5  6  1  0
  6 13  1  0
  6 14  1  0
M  END
$$$$

     RDKit          3D

 18 21  0  0  0  0  0  0  0  0999 V2000
    1.2860    0.9242   -2.1590 O   0  0  0  0  0  0  0  0  0  0  0  0
    0.6295    0.7636   -0.8888 C   0  0  0  0  0  0  0  0  0  0  0  0
    1.5151    0.3000    0.3289 C   0  0  0  0  0  0  0  0  0  0  0  0
    0.6863   -1.2445    1.0711 C   0  0  0  0  0  0  0  0  0  0  0  0
   -0.8618   -1.2521    1.2507 N   0  0  0  0  0  0  0  0  0  0  0  0
   -0.9385   -0.0738    0.6862 C   0  0  0  0  0  0  0  0  0  0  0  0
   -2.0732   -0.3770   -0.0175 C   0  0  0  0  0  0  0  0  0  0  0  0
   -1.2272    0.9277   -1.0283 C   0  0  0  0  0  0  0  0  0  0  0  0
   -0.3525   -0.2089   -0.7977 C   0  0  0  0  0  0  0  0  0  0  0  0
    1.7256    0.1200   -2.4986 H   0  0  0  0  0  0  0  0  0  0  0  0
    2.1859    1.1332    0.6804 H   0  0  0  0  0  0  0  0  0  0  0  0
    0.9449    0.9127    1.0770 H   0  0  0  0  0  0  0  0  0  0  0  0
    1.2122   -1.3998    2.0424 H   0  0  0  0  0  0  0  0  0  0  0  0
    1.0331   -1.9894    0.3561 H   0  0  0  0  0  0  0  0  0  0  0  0
   -0.9697    0.8180    1.2917 H   0  0  0  0  0  0  0  0  0  0  0  0
   -3.0242   -0.1452    0.5343 H   0  0  0  0  0  0  0  0  0  0  0  0
   -1.3865    1.9232   -0.5349 H   0  0  0  0  0  0  0  0  0  0  0  0
   -0.3848   -1.1318   -1.3940 H   0  0  0  0  0  0  0  0  0  0  0  0
  4 13  1  0
  3 11  1  0
  3  4  1  0
  4 14  1  0
  4  5  1  0
  3 12  1  0
  2  3  1  0
  7 16  1  0
  5  7  1  0
  5  6  1  0
  1  2  1  0
  2  8  1  0
  2  9  1  0
  7  8  1  0
  6  7  1  0
  1 10  1  0
  8 17  1  0
  8  9  1  0
  6  9  1  0
  6 15  1  0
  9 18  1  0
M  END
$$$$

     RDKit          3D

 18 18  0  0  0  0  0  0  0  0999 V2000
    1.2000    0.0837    1.2714 C   0  0  0  0  0  0  0  0  0  0  0  0
    0.6396   -1.0292    0.4083 C   0  0  0  0  0  0  0  0  0  0  0  0
    1.7143   -1.9190    0.3308 O   0  0  0  0  0  0  0  0  0  0  0  0
    0.1016   -0.8723   -1.0061 C   0  0  0  0  0  0  0  0  0  0  0  0
    0.3173    0.2780   -1.7655 O   0  0  0  0  0  0  0  0  0  0  0  0
   -1.0695    0.1106   -1.2158 C   0  0  0  0  0  0  0  0  0  0  0  0
   -1.5572    1.0767   -0.1813 C   0  0  0  0  0  0  0  0  0  0  0  0
   -1.0912    2.4383   -0.4741 C   0  0  0  0  0  0  0  0  0  0  0  0
   -0.5141    3.4530   -0.6203 N   0  0  0  0  0  0  0  0  0  0  0  0
    2.3144   -0.1169    1.5147 H   0  0  0  0  0  0  0  0  0  0  0  0
    1.3824    1.0918    0.6346 H   0  0  0  0  0  0  0  0  0  0  0  0
    0.5913   -0.0174    2.2217 H   0  0  0  0  0  0  0  0  0  0  0  0
   -0.2890   -1.4609    0.9906 H   0  0  0  0  0  0  0  0  0  0  0  0
    1.5765   -2.9108    0.4683 H   0  0  0  0  0  0  0  0  0  0  0  0
    0.1091   -1.8363   -1.5332 H   0  0  0  0  0  0  0  0  0  0  0  0
   -1.7578    0.0044   -2.0619 H   0  0  0  0  0  0  0  0  0  0  0  0
   -2.5222    0.8323    0.2510 H   0  0  0  0  0  0  0  0  0  0  0  0
   -1.1457    0.7941    0.7669 H   0  0  0  0  0  0  0  0  0  0  0  0
  1 11  1  0
  8  9  3  0
  5  6  1  0
  4  5  1  0
  7 17  1  0
  7  8  1  0
  2 13  1  0
  1 10  1  0
  1  2  1  0
  1 12  1  0
  6  7  1  0
  7 18  1  0
  2  4  1  0
  2  3  1  0
  4  6  1  0
  6 16  1  0
  4 15  1  0
  3 14  1  0
M  END
$$$$

     RDKit          3D

 17 17  0  0  0  0  0  0  0  0999 V2000
    0.8541   -1.7239   -0.5024 C   0  0  0  0  0  0  0  0  0  0  0  0
   -0.5004   -0.9522   -0.3900 C   0  0  0  0  0  0  0  0  0  0  0  0
   -0.9463   -0.7470    1.0481 N   0  0  0  0  0  0  0  0  0  0  0  0
   -0.1925    0.5564    1.0307 C   0  0  0  0  0  0  0  0  0  0  0  0
   -0.6823    1.7473    1.7234 C   0  0  0  0  0  0  0  0  0  0  0  0
   -0.5817    2.8996    1.9466 N   0  0  0  0  0  0  0  0  0  0  0  0
   -0.4875    0.6095   -0.4881 C   0  0  0  0  0  0  0  0  0  0  0  0
    0.6422    1.2087   -1.1836 N   0  0  0  0  0  0  0  0  0  0  0  0
    0.6164   -2.7590   -0.8563 H   0  0  0  0  0  0  0  0  0  0  0  0
    1.2850   -1.8506    0.4679 H   0  0  0  0  0  0  0  0  0  0  0  0
    1.5306   -1.2841   -1.2942 H   0  0  0  0  0  0  0  0  0  0  0  0
   -1.2941   -1.4294   -0.9735 H   0  0  0  0  0  0  0  0  0  0  0  0
   -1.9679   -0.6739    1.1415 H   0  0  0  0  0  0  0  0  0  0  0  0
    0.8817    0.4110    1.3344 H   0  0  0  0  0  0  0  0  0  0  0  0
   -1.4849    1.0360   -0.7640 H   0  0  0  0  0  0  0  0  0  0  0  0
    1.5524    0.7490   -1.2112 H   0  0  0  0  0  0  0  0  0  0  0  0
    0.7751    2.2026   -1.0293 H   0  0  0  0  0  0  0  0  0  0  0  0
  3 13  1  0
  1 10  1  0
  2  3  1  0
  3  4  1  0
  1  9  1  0
  1  2  1  0
  1 11  1  0
  2 12  1  0
  2  7  1  0
  4 14  1  0
  4  5  1  0
  4  7  1  0
  5  6  3  0
  7  8  1  0
  7 15  1  0
  8 17  1  0
  8 16  1  0
M  END
$$$$

     RDKit          3D

 21 22  0  0  0  0  0  0  0  0999 V2000
    2.6428   -0.4089   -1.8583 O   0  0  0  0  0  0  0  0  0  0  0  0
    1.4182   -0.3918   -1.0185 C   0  0  0  0  0  0  0  0  0  0  0  0
    0.5106    0.8683   -1.0690 C   0  0  0  0  0  0  0  0  0  0  0  0
    0.2426    0.6860    0.4723 C   0  0  0  0  0  0  0  0  0  0  0  0
    0.2492    1.9523    1.1521 O   0  0  0  0  0  0  0  0  0  0  0  0
    1.6262   -0.1856    0.4775 C   0  0  0  0  0  0  0  0  0  0  0  0
   -0.9185   -0.1740    0.9418 C   0  0  0  0  0  0  0  0  0  0  0  0
   -1.7525   -1.1215    0.1738 C   0  0  0  0  0  0  0  0  0  0  0  0
   -2.4505    0.0680    0.8180 C   0  0  0  0  0  0  0  0  0  0  0  0
    2.9522   -1.3285   -1.7126 H   0  0  0  0  0  0  0  0  0  0  0  0
    0.8194   -1.3013   -1.1520 H   0  0  0  0  0  0  0  0  0  0  0  0
    1.1078    1.7574   -1.2221 H   0  0  0  0  0  0  0  0  0  0  0  0
   -0.3526    0.8251   -1.7985 H   0  0  0  0  0  0  0  0  0  0  0  0
   -0.1155    2.5581    0.4338 H   0  0  0  0  0  0  0  0  0  0  0  0
    1.6074   -1.1125    1.0923 H   0  0  0  0  0  0  0  0  0  0  0  0
    2.5091    0.4118    0.7724 H   0  0  0  0  0  0  0  0  0  0  0  0
   -0.6181   -0.5311    1.9258 H   0  0  0  0  0  0  0  0  0  0  0  0
   -1.7907   -2.1461    0.5518 H   0  0  0  0  0  0  0  0  0  0  0  0
   -1.7638   -1.1025   -0.9023 H   0  0  0  0  0  0  0  0  0  0  0  0
   -3.0056   -0.1194    1.7459 H   0  0  0  0  0  0  0  0  0  0  0  0
   -2.9176    0.7961    0.1759 H   0  0  0  0  0  0  0  0  0  0  0  0
  2 11  1  0
  6 15  1  0
  6 16  1  0
  2  6  1  0
  4  6  1  0
  1  2  1  0
  2  3  1  0
  1 10  1  0
  3 12  1  0
  3  4  1  0
  3 13  1  0
  4  5  1  0
  4  7  1  0
  5 14  1  0
  7 17  1  0
  7  9  1  0
  7  8  1  0
  9 20  1  0
  9 21  1  0
  8  9  1  0
  8 19  1  0
  8 18  1  0
M  END
$$$$

     RDKit          3D

 15 15  0  0  0  0  0  0  0  0999 V2000
    1.8633    0.0699    0.0223 C   0  0  0  0  0  0  0  0  0  0  0  0
    0.5754    0.4424   -0.5364 N   0  0  0  0  0  0  0  0  0  0  0  0
    0.5379    1.2918   -1.6356 C   0  0  0  0  0  0  0  0  0  0  0  0
   -0.4241    1.7228   -2.2566 O   0  0  0  0  0  0  0  0  0  0  0  0
   -0.6131   -0.0382    0.0111 C   0  0  0  0  0  0  0  0  0  0  0  0
   -0.7363   -0.8840    1.0917 C   0  0  0  0  0  0  0  0  0  0  0  0
   -2.0812   -1.0505    1.2318 N   0  0  0  0  0  0  0  0  0  0  0  0
   -2.7587   -0.3629    0.3074 N   0  0  0  0  0  0  0  0  0  0  0  0
   -1.8666    0.2636   -0.4495 N   0  0  0  0  0  0  0  0  0  0  0  0
    1.9852   -1.0163   -0.0453 H   0  0  0  0  0  0  0  0  0  0  0  0
    1.9072    0.3853    1.0699 H   0  0  0  0  0  0  0  0  0  0  0  0
    2.6890    0.5451   -0.5162 H   0  0  0  0  0  0  0  0  0  0  0  0
    1.5511    1.5911   -1.9507 H   0  0  0  0  0  0  0  0  0  0  0  0
   -0.0274   -1.3631    1.7478 H   0  0  0  0  0  0  0  0  0  0  0  0
   -2.6017   -1.5970    1.9082 H   0  0  0  0  0  0  0  0  0  0  0  0
  7 15  1  0
  7  8  1  0
  6  7  1  0
  6 14  1  0
  8  9  2  0
  5  6  2  0
  5  9  1  0
  2  5  1  0
  1 11  1  0
  1 10  1  0
  1  2  1  0
  2  3  1  0
  1 12  1  0
  3 13  1  0
  3  4  2  0
M  END
$$$$

     RDKit          3D

 20 20  0  0  0  0  0  0  0  0999 V2000
   -2.3177    0.7952   -0.6678 C   0  0  0  0  0  0  0  0  0  0  0  0
   -1.2910    0.0300   -1.2901 O   0  0  0  0  0  0  0  0  0  0  0  0
   -0.5793   -0.8284   -0.3830 C   0  0  0  0  0  0  0  0  0  0  0  0
   -0.0189   -1.9886   -1.2091 C   0  0  0  0  0  0  0  0  0  0  0  0
    0.4957   -0.0195    0.2738 C   0  0  0  0  0  0  0  0  0  0  0  0
    1.7886    0.2906   -0.1232 C   0  0  0  0  0  0  0  0  0  0  0  0
    2.3815    1.0845    0.8921 C   0  0  0  0  0  0  0  0  0  0  0  0
    1.4309    1.2650    1.8698 C   0  0  0  0  0  0  0  0  0  0  0  0
    0.2975    0.5899    1.4936 N   0  0  0  0  0  0  0  0  0  0  0  0
   -1.8903    1.5554    0.0042 H   0  0  0  0  0  0  0  0  0  0  0  0
   -3.0144    0.1440   -0.1221 H   0  0  0  0  0  0  0  0  0  0  0  0
   -2.8835    1.3112   -1.4514 H   0  0  0  0  0  0  0  0  0  0  0  0
   -1.2698   -1.2484    0.3612 H   0  0  0  0  0  0  0  0  0  0  0  0
   -0.8347   -2.4913   -1.7391 H   0  0  0  0  0  0  0  0  0  0  0  0
    0.5205   -2.7218   -0.5875 H   0  0  0  0  0  0  0  0  0  0  0  0
    0.6595   -1.6309   -1.9955 H   0  0  0  0  0  0  0  0  0  0  0  0
    2.2550   -0.0321   -1.0439 H   0  0  0  0  0  0  0  0  0  0  0  0
    3.3904    1.4811    0.9042 H   0  0  0  0  0  0  0  0  0  0  0  0
    1.4444    1.8291    2.7944 H   0  0  0  0  0  0  0  0  0  0  0  0
   -0.5644    0.5849    2.0192 H   0  0  0  0  0  0  0  0  0  0  0  0
  4 16  1  0
  4 14  1  0
  4 15  1  0
  3  4  1  0
  6 17  1  0
  1 11  1  0
  3 13  1  0
  3  5  1  0
  2  3  1  0
  5  6  2  0
  6  7  1  0
  1 12  1  0
  1  2  1  0
  1 10  1  0
  5  9  1  0
  7 18  1  0
  7  8  2  0
  8  9  1  0
  9 20  1  0
  8 19  1  0
M  END
$$$$

     RDKit          3D

 12 12  0  0  0  0  0  0  0  0999 V2000
    1.6778    0.7043    0.5450 N   0  0  0  0  0  0  0  0  0  0  0  0
    0.7087   -0.2286    0.3075 C   0  0  0  0  0  0  0  0  0  0  0  0
   -0.5362   -0.1107   -0.1067 C   0  0  0  0  0  0  0  0  0  0  0  0
   -1.1713   -1.3226   -0.2211 O   0  0  0  0  0  0  0  0  0  0  0  0
   -0.1573   -2.1781    0.1705 C   0  0  0  0  0  0  0  0  0  0  0  0
   -0.2957   -3.3960    0.2072 O   0  0  0  0  0  0  0  0  0  0  0  0
    1.0317   -1.5504    0.5034 O   0  0  0  0  0  0  0  0  0  0  0  0
   -1.2208    1.0868   -0.4091 C   0  0  0  0  0  0  0  0  0  0  0  0
   -1.8215    2.1001   -0.6428 C   0  0  0  0  0  0  0  0  0  0  0  0
    1.5408    1.5773    0.0402 H   0  0  0  0  0  0  0  0  0  0  0  0
    2.6130    0.3230    0.4379 H   0  0  0  0  0  0  0  0  0  0  0  0
   -2.3693    2.9950   -0.8321 H   0  0  0  0  0  0  0  0  0  0  0  0
  1  2  1  0
  1 10  1  0
  1 11  1  0
  2  3  2  0
  2  7  1  0
  3  4  1  0
  3  8  1  0
  4  5  1  0
  5  6  2  0
  5  7  1  0
  8  9  3  0
  9 12  1  0
M  END
$$$$

     RDKit          3D

 18 21  0  0  0  0  0  0  0  0999 V2000
   -1.3034    0.2676    1.5944 C   0  0  0  0  0  0  0  0  0  0  0  0
   -0.2748   -0.1219    0.6034 C   0  0  0  0  0  0  0  0  0  0  0  0
    0.0844    0.9872   -0.4582 C   0  0  0  0  0  0  0  0  0  0  0  0
   -0.9550    0.2973   -1.3416 C   0  0  0  0  0  0  0  0  0  0  0  0
   -0.5852   -0.9482   -0.6372 N   0  0  0  0  0  0  0  0  0  0  0  0
    0.9259   -1.0785   -0.7035 C   0  0  0  0  0  0  0  0  0  0  0  0
    1.4981    0.3733   -0.7119 C   0  0  0  0  0  0  0  0  0  0  0  0
    2.2333   -0.0009    0.5689 O   0  0  0  0  0  0  0  0  0  0  0  0
    1.0850   -0.8645    0.8177 C   0  0  0  0  0  0  0  0  0  0  0  0
   -1.6209   -0.5548    2.2259 H   0  0  0  0  0  0  0  0  0  0  0  0
   -2.1828    0.7071    1.1338 H   0  0  0  0  0  0  0  0  0  0  0  0
   -0.9224    1.0573    2.3140 H   0  0  0  0  0  0  0  0  0  0  0  0
    0.0115    2.0144   -0.2033 H   0  0  0  0  0  0  0  0  0  0  0  0
   -2.0032    0.5592   -1.1541 H   0  0  0  0  0  0  0  0  0  0  0  0
   -0.6410    0.4321   -2.3778 H   0  0  0  0  0  0  0  0  0  0  0  0
    1.3723   -1.8778   -1.2690 H   0  0  0  0  0  0  0  0  0  0  0  0
    2.0185    0.5585   -1.6559 H   0  0  0  0  0  0  0  0  0  0  0  0
    1.2597   -1.8076    1.2545 H   0  0  0  0  0  0  0  0  0  0  0  0
  3 13  1  0
  7 17  1  0
  3  7  1  0
  3  4  1  0
  2  3  1  0
  7  8  1  0
  6  7  1  0
  8  9  1  0
  1 11  1  0
  4 15  1  0
  4 14  1  0
  4  5  1  0
  1 10  1  0
  1  2  1  0
  2  9  1  0
  2  5  1  0
  1 12  1  0
  6  9  1  0
  9 18  1  0
  5  6  1  0
  6 16  1  0
M  END
$$$$

     RDKit          3D

 13 13  0  0  0  0  0  0  0  0999 V2000
   -0.7305   -2.3106   -0.3649 N   0  0  0  0  0  0  0  0  0  0  0  0
   -0.7277   -1.6866    0.7604 C   0  0  0  0  0  0  0  0  0  0  0  0
   -0.3315   -0.4056    1.0089 N   0  0  0  0  0  0  0  0  0  0  0  0
    0.1454    0.4886    0.1249 C   0  0  0  0  0  0  0  0  0  0  0  0
    0.4059    0.5009   -1.2276 C   0  0  0  0  0  0  0  0  0  0  0  0
    0.9014    1.7271   -1.6035 N   0  0  0  0  0  0  0  0  0  0  0  0
    0.9205    2.3995   -0.4757 C   0  0  0  0  0  0  0  0  0  0  0  0
    0.4778    1.7188    0.6177 O   0  0  0  0  0  0  0  0  0  0  0  0
   -1.0855   -3.2643   -0.2335 H   0  0  0  0  0  0  0  0  0  0  0  0
   -1.0777   -2.1971    1.6751 H   0  0  0  0  0  0  0  0  0  0  0  0
   -0.4025   -0.0861    1.9674 H   0  0  0  0  0  0  0  0  0  0  0  0
    0.2620   -0.3030   -1.9363 H   0  0  0  0  0  0  0  0  0  0  0  0
    1.2423    3.4184   -0.3130 H   0  0  0  0  0  0  0  0  0  0  0  0
  5 12  1  0
  1  9  1  0
  1  2  2  3
  5  6  1  0
  4  5  2  0
  6  7  2  0
  2 10  1  0
  2  3  1  0
  3  4  1  0
  4  8  1  0
  7 13  1  0
  7  8  1  0
  3 11  1  0
M  END
$$$$

     RDKit          3D

 22 23  0  0  0  0  0  0  0  0999 V2000
    1.3464   -1.5179    0.7557 C   0  0  0  0  0  0  0  0  0  0  0  0
    0.0455   -0.8449    0.2643 C   0  0  0  0  0  0  0  0  0  0  0  0
   -0.7656   -0.0812    1.4465 C   0  0  0  0  0  0  0  0  0  0  0  0
   -1.4631    1.0713    0.9644 C   0  0  0  0  0  0  0  0  0  0  0  0
   -1.9417    0.8850   -0.4768 C   0  0  0  0  0  0  0  0  0  0  0  0
   -1.1688    0.3519   -1.4433 C   0  0  0  0  0  0  0  0  0  0  0  0
    0.1650   -0.0667   -1.0372 C   0  0  0  0  0  0  0  0  0  0  0  0
    1.3632    0.9804   -1.0868 C   0  0  0  0  0  0  0  0  0  0  0  0
    1.2673    0.0124   -2.1112 N   0  0  0  0  0  0  0  0  0  0  0  0
    1.4795   -1.4851    1.8616 H   0  0  0  0  0  0  0  0  0  0  0  0
    1.3039   -2.5516    0.4520 H   0  0  0  0  0  0  0  0  0  0  0  0
    2.2061   -1.2453    0.1687 H   0  0  0  0  0  0  0  0  0  0  0  0
   -0.6537   -1.7393    0.1200 H   0  0  0  0  0  0  0  0  0  0  0  0
    0.1226    0.0974    2.1677 H   0  0  0  0  0  0  0  0  0  0  0  0
   -1.3844   -0.8132    1.9925 H   0  0  0  0  0  0  0  0  0  0  0  0
   -0.7650    1.9237    0.8354 H   0  0  0  0  0  0  0  0  0  0  0  0
   -2.2089    1.4994    1.6706 H   0  0  0  0  0  0  0  0  0  0  0  0
   -3.0755    0.9841   -0.6797 H   0  0  0  0  0  0  0  0  0  0  0  0
   -1.3637    0.1686   -2.4843 H   0  0  0  0  0  0  0  0  0  0  0  0
    2.1461    0.8515   -0.2280 H   0  0  0  0  0  0  0  0  0  0  0  0
    1.1733    2.0482   -1.3338 H   0  0  0  0  0  0  0  0  0  0  0  0
    2.1715   -0.5286   -1.8182 H   0  0  0  0  0  0  0  0  0  0  0  0
  3 15  1  0
  4 16  1  0
  4 17  1  0
  3  4  1  0
  4  5  1  0
  3 14  1  0
  2  3  1  0
  1 11  1  0
  2 13  1  0
  1  2  1  0
  2  7  1  0
  1 10  1  0
  1 12  1  0
  5 18  1  0
  5  6  2  0
  6  7  1  0
  6 19  1  0
  7  9  1  0
  7  8  1  0
  9 22  1  0
  8  9  1  0
  8 21  1  0
  8 20  1  0
M  END
$$$$

     RDKit          3D

 14 16  0  0  0  0  0  0  0  0999 V2000
   -1.2378    3.0573    0.6323 N   0  0  0  0  0  0  0  0  0  0  0  0
   -1.0029    1.9387    0.3317 C   0  0  0  0  0  0  0  0  0  0  0  0
   -0.5106    0.6562    0.0193 C   0  0  0  0  0  0  0  0  0  0  0  0
   -1.2671   -0.5374   -0.4282 C   0  0  0  0  0  0  0  0  0  0  0  0
   -0.7694   -1.2531    0.7711 O   0  0  0  0  0  0  0  0  0  0  0  0
    0.3074   -0.1872    0.9159 C   0  0  0  0  0  0  0  0  0  0  0  0
    1.5366   -0.8171    0.2443 C   0  0  0  0  0  0  0  0  0  0  0  0
    1.1483   -0.7575   -1.2241 O   0  0  0  0  0  0  0  0  0  0  0  0
   -0.1624   -0.0344   -1.2790 C   0  0  0  0  0  0  0  0  0  0  0  0
   -2.3180   -0.3258   -0.7723 H   0  0  0  0  0  0  0  0  0  0  0  0
    0.4203    0.0253    2.0225 H   0  0  0  0  0  0  0  0  0  0  0  0
    1.8725   -1.8396    0.6323 H   0  0  0  0  0  0  0  0  0  0  0  0
    2.4816   -0.3332    0.3889 H   0  0  0  0  0  0  0  0  0  0  0  0
   -0.4985    0.4077   -2.2547 H   0  0  0  0  0  0  0  0  0  0  0  0
  7 13  1  0
  7  8  1  0
  8  9  1  0
  7 12  1  0
  6  7  1  0
  9 14  1  0
  3  9  1  0
  4  9  1  0
  3  6  1  0
  6 11  1  0
  5  6  1  0
  2  3  1  0
  3  4  1  0
  1  2  3  0
  4  5  1  0
  4 10  1  0
M  END
$$$$

     RDKit          3D

 20 19  0  0  0  0  0  0  0  0999 V2000
    0.4347    0.9626   -1.6344 C   0  0  0  0  0  0  0  0  0  0  0  0
    0.3249    0.2635   -0.2652 C   0  0  0  0  0  0  0  0  0  0  0  0
    1.0229   -1.1055   -0.3836 C   0  0  0  0  0  0  0  0  0  0  0  0
    1.0738    1.1157    0.7769 C   0  0  0  0  0  0  0  0  0  0  0  0
   -1.1822    0.1274    0.1197 C   0  0  0  0  0  0  0  0  0  0  0  0
   -1.9216   -0.4876   -0.9378 O   0  0  0  0  0  0  0  0  0  0  0  0
   -1.4219   -0.6186    1.3690 C   0  0  0  0  0  0  0  0  0  0  0  0
   -1.6665   -1.2368    2.3701 C   0  0  0  0  0  0  0  0  0  0  0  0
   -0.2436    1.8256   -1.7027 H   0  0  0  0  0  0  0  0  0  0  0  0
    0.1648    0.2808   -2.4627 H   0  0  0  0  0  0  0  0  0  0  0  0
    1.4528    1.3520   -1.8255 H   0  0  0  0  0  0  0  0  0  0  0  0
    0.3596   -1.8521   -0.8511 H   0  0  0  0  0  0  0  0  0  0  0  0
    1.3168   -1.4970    0.6100 H   0  0  0  0  0  0  0  0  0  0  0  0
    1.9236   -1.0374   -1.0030 H   0  0  0  0  0  0  0  0  0  0  0  0
    0.6059    2.1027    0.8707 H   0  0  0  0  0  0  0  0  0  0  0  0
    1.0698    0.6175    1.7596 H   0  0  0  0  0  0  0  0  0  0  0  0
    2.1216    1.2773    0.4974 H   0  0  0  0  0  0  0  0  0  0  0  0
   -1.6082    1.1256    0.2271 H   0  0  0  0  0  0  0  0  0  0  0  0
   -1.9106   -1.4510   -0.7959 H   0  0  0  0  0  0  0  0  0  0  0  0
   -1.9164   -1.7649    3.2614 H   0  0  0  0  0  0  0  0  0  0  0  0
  5 18  1  0
  8 20  1  0
  7  8  3  0
  5  7  1  0
  5  6  1  0
  6 19  1  0
  2  5  1  0
  4 15  1  0
  1 10  1  0
  1  9  1  0
  1  2  1  0
  1 11  1  0
  2  4  1  0
  4 16  1  0
  4 17  1  0
  2  3  1  0
  3 14  1  0
  3 13  1  0
  3 12  1  0
M  END
$$$$

     RDKit          3D

 12 12  0  0  0  0  0  0  0  0999 V2000
    1.4419   -1.2998    2.2086 F   0  0  0  0  0  0  0  0  0  0  0  0
    0.9841   -0.8543    1.0301 C   0  0  0  0  0  0  0  0  0  0  0  0
   -0.0870   -0.0048    1.0299 C   0  0  0  0  0  0  0  0  0  0  0  0
   -0.4861    0.4007   -0.2183 C   0  0  0  0  0  0  0  0  0  0  0  0
   -1.6310    1.3207   -0.3674 C   0  0  0  0  0  0  0  0  0  0  0  0
   -2.2552    1.7480    0.5968 O   0  0  0  0  0  0  0  0  0  0  0  0
    0.1008    0.0170   -1.3716 N   0  0  0  0  0  0  0  0  0  0  0  0
    1.1385   -0.8163   -1.2330 C   0  0  0  0  0  0  0  0  0  0  0  0
    1.6189   -1.2794   -0.0758 N   0  0  0  0  0  0  0  0  0  0  0  0
   -0.5689    0.3130    1.9425 H   0  0  0  0  0  0  0  0  0  0  0  0
   -1.8908    1.6012   -1.4017 H   0  0  0  0  0  0  0  0  0  0  0  0
    1.6347   -1.1459   -2.1402 H   0  0  0  0  0  0  0  0  0  0  0  0
  1  2  1  0
  2  3  2  0
  2  9  1  0
  3  4  1  0
  3 10  1  0
  4  5  1  0
  4  7  2  0
  5  6  2  0
  5 11  1  0
  7  8  1  0
  8  9  2  0
  8 12  1  0
M  END
$$$$

     RDKit          3D

 19 21  0  0  0  0  0  0  0  0999 V2000
   -0.2406    1.7787    1.0360 C   0  0  0  0  0  0  0  0  0  0  0  0
    0.8941    1.2441    0.1971 C   0  0  0  0  0  0  0  0  0  0  0  0
    0.7628    0.3140   -1.0207 C   0  0  0  0  0  0  0  0  0  0  0  0
   -0.3602   -0.6980   -1.3539 C   0  0  0  0  0  0  0  0  0  0  0  0
   -1.6731   -0.7884   -0.5799 C   0  0  0  0  0  0  0  0  0  0  0  0
   -0.5443   -1.6733   -0.1377 C   0  0  0  0  0  0  0  0  0  0  0  0
    0.5102   -1.2711    0.8680 C   0  0  0  0  0  0  0  0  0  0  0  0
    0.6414   -1.7752    1.9615 O   0  0  0  0  0  0  0  0  0  0  0  0
    1.3859   -0.1476    0.3197 C   0  0  0  0  0  0  0  0  0  0  0  0
    0.1193    2.4845    1.8101 H   0  0  0  0  0  0  0  0  0  0  0  0
   -0.7357    1.0125    1.5904 H   0  0  0  0  0  0  0  0  0  0  0  0
   -1.0078    2.3194    0.3974 H   0  0  0  0  0  0  0  0  0  0  0  0
    1.7125    2.0146    0.1616 H   0  0  0  0  0  0  0  0  0  0  0  0
    1.4148    0.6221   -1.8642 H   0  0  0  0  0  0  0  0  0  0  0  0
   -0.2995   -1.2140   -2.3114 H   0  0  0  0  0  0  0  0  0  0  0  0
   -1.9381    0.1076    0.0030 H   0  0  0  0  0  0  0  0  0  0  0  0
   -2.5611   -1.2336   -1.1542 H   0  0  0  0  0  0  0  0  0  0  0  0
   -0.5351   -2.7538   -0.3075 H   0  0  0  0  0  0  0  0  0  0  0  0
    2.4545   -0.3424    0.3846 H   0  0  0  0  0  0  0  0  0  0  0  0
  5 16  1  0
  4 15  1  0
  4  5  1  0
  5 17  1  0
  5  6  1  0
  4  6  1  0
  3  4  1  0
  6 18  1  0
  6  7  1  0
  3 14  1  0
  2  3  1  0
  3  9  1  0
  1 11  1  0
  7  9  1  0
  7  8  2  0
  1  2  1  0
  2  9  1  0
  2 13  1  0
  1 10  1  0
  1 12  1  0
  9 19  1  0
M  END
$$$$

     RDKit          3D

 20 20  0  0  0  0  0  0  0  0999 V2000
    1.7161   -0.6050    1.0581 C   0  0  0  0  0  0  0  0  0  0  0  0
    0.9802   -0.0221   -0.1618 C   0  0  0  0  0  0  0  0  0  0  0  0
    0.6030    1.4629    0.0474 C   0  0  0  0  0  0  0  0  0  0  0  0
   -0.1267    1.6899    1.2562 O   0  0  0  0  0  0  0  0  0  0  0  0
   -0.1137   -0.9545   -0.6160 C   0  0  0  0  0  0  0  0  0  0  0  0
   -1.3084   -1.1621    0.2812 C   0  0  0  0  0  0  0  0  0  0  0  0
   -1.5110   -0.6151   -1.0985 C   0  0  0  0  0  0  0  0  0  0  0  0
   -1.9648    0.7390   -1.1245 O   0  0  0  0  0  0  0  0  0  0  0  0
    2.2287    0.1765    1.6494 H   0  0  0  0  0  0  0  0  0  0  0  0
    2.4895   -1.3266    0.7440 H   0  0  0  0  0  0  0  0  0  0  0  0
    1.0185   -1.1251    1.7380 H   0  0  0  0  0  0  0  0  0  0  0  0
    1.7016   -0.0101   -0.9888 H   0  0  0  0  0  0  0  0  0  0  0  0
    0.0716    1.8870   -0.8168 H   0  0  0  0  0  0  0  0  0  0  0  0
    1.5209    2.0459    0.1351 H   0  0  0  0  0  0  0  0  0  0  0  0
   -0.7284    2.4567    1.1084 H   0  0  0  0  0  0  0  0  0  0  0  0
    0.3215   -1.8699   -1.0342 H   0  0  0  0  0  0  0  0  0  0  0  0
   -1.6039   -2.1796    0.4695 H   0  0  0  0  0  0  0  0  0  0  0  0
   -1.4987   -0.4795    1.1186 H   0  0  0  0  0  0  0  0  0  0  0  0
   -2.0100   -1.2871   -1.7848 H   0  0  0  0  0  0  0  0  0  0  0  0
   -1.7862    1.1786   -1.9805 H   0  0  0  0  0  0  0  0  0  0  0  0
  4 15  1  0
  3  4  1  0
  3 14  1  0
  3 13  1  0
  2  3  1  0
  1 10  1  0
  2 12  1  0
  1  2  1  0
  2  5  1  0
  1  9  1  0
  1 11  1  0
  8 20  1  0
  7  8  1  0
  5 16  1  0
  5  7  1  0
  5  6  1  0
  7 19  1  0
  6  7  1  0
  6 18  1  0
  6 17  1  0
M  END
$$$$

     RDKit          3D

 19 20  0  0  0  0  0  0  0  0999 V2000
    1.3627    1.5906    0.8824 C   0  0  0  0  0  0  0  0  0  0  0  0
    0.4626    1.1267   -0.2768 C   0  0  0  0  0  0  0  0  0  0  0  0
    0.9068    0.0710   -1.2788 C   0  0  0  0  0  0  0  0  0  0  0  0
    0.0073   -1.1631   -0.8447 C   0  0  0  0  0  0  0  0  0  0  0  0
   -0.7148   -0.6507    0.4019 C   0  0  0  0  0  0  0  0  0  0  0  0
   -1.6916   -1.6089    1.0277 C   0  0  0  0  0  0  0  0  0  0  0  0
   -1.4134   -2.0375    2.1343 O   0  0  0  0  0  0  0  0  0  0  0  0
   -1.1547    0.7138   -0.0588 C   0  0  0  0  0  0  0  0  0  0  0  0
   -0.5851    1.9718   -0.3553 O   0  0  0  0  0  0  0  0  0  0  0  0
    2.0349    2.4325    0.5939 H   0  0  0  0  0  0  0  0  0  0  0  0
    1.9614    0.7709    1.2423 H   0  0  0  0  0  0  0  0  0  0  0  0
    0.7726    1.9631    1.7363 H   0  0  0  0  0  0  0  0  0  0  0  0
    1.9762   -0.2985   -1.1548 H   0  0  0  0  0  0  0  0  0  0  0  0
    0.8240    0.2994   -2.3416 H   0  0  0  0  0  0  0  0  0  0  0  0
   -0.8441   -1.2499   -1.6223 H   0  0  0  0  0  0  0  0  0  0  0  0
    0.5742   -2.0627   -0.8984 H   0  0  0  0  0  0  0  0  0  0  0  0
    0.0031   -0.5408    1.2182 H   0  0  0  0  0  0  0  0  0  0  0  0
   -2.6563   -1.8439    0.5268 H   0  0  0  0  0  0  0  0  0  0  0  0
   -1.8259    0.5161   -0.9325 H   0  0  0  0  0  0  0  0  0  0  0  0
  3 14  1  0
  1 11  1  0
  4 16  1  0
  3 13  1  0
  2  3  1  0
  3  4  1  0
  1  2  1  0
  1 10  1  0
  1 12  1  0
  2  9  1  0
  8  9  1  0
  2  8  1  0
  4 15  1  0
  4  5  1  0
  6 18  1  0
  5  8  1  0
  8 19  1  0
  5  6  1  0
  5 17  1  0
  6  7  2  0
M  END
$$$$

     RDKit          3D

 20 19  0  0  0  0  0  0  0  0999 V2000
   -0.9366    0.7116   -1.3944 C   0  0  0  0  0  0  0  0  0  0  0  0
   -0.1196    0.1275   -0.2311 C   0  0  0  0  0  0  0  0  0  0  0  0
    0.3695    1.2635    0.6967 C   0  0  0  0  0  0  0  0  0  0  0  0
   -0.6965    2.0981    1.1406 O   0  0  0  0  0  0  0  0  0  0  0  0
   -0.9895   -0.8884    0.5237 C   0  0  0  0  0  0  0  0  0  0  0  0
   -0.2984   -1.4834    1.6303 O   0  0  0  0  0  0  0  0  0  0  0  0
    1.1061   -0.5824   -0.8103 C   0  0  0  0  0  0  0  0  0  0  0  0
    1.9849   -1.1096    0.1005 N   0  0  0  0  0  0  0  0  0  0  0  0
    1.3355   -0.7042   -2.0125 O   0  0  0  0  0  0  0  0  0  0  0  0
   -1.2613   -0.0794   -2.0763 H   0  0  0  0  0  0  0  0  0  0  0  0
   -1.8310    1.2296   -1.0343 H   0  0  0  0  0  0  0  0  0  0  0  0
   -0.3473    1.4273   -1.9704 H   0  0  0  0  0  0  0  0  0  0  0  0
    0.8653    0.8584    1.5887 H   0  0  0  0  0  0  0  0  0  0  0  0
    1.1084    1.8958    0.1991 H   0  0  0  0  0  0  0  0  0  0  0  0
   -0.8726    2.7481    0.4321 H   0  0  0  0  0  0  0  0  0  0  0  0
   -1.3082   -1.6865   -0.1571 H   0  0  0  0  0  0  0  0  0  0  0  0
   -1.8936   -0.4169    0.9190 H   0  0  0  0  0  0  0  0  0  0  0  0
   -0.5994   -2.4185    1.6738 H   0  0  0  0  0  0  0  0  0  0  0  0
    2.7370   -1.6886   -0.2563 H   0  0  0  0  0  0  0  0  0  0  0  0
    1.6472   -1.3020    1.0381 H   0  0  0  0  0  0  0  0  0  0  0  0
  7  9  2  0
  8 20  1  0
  7  8  1  0
  2  7  1  0
  8 19  1  0
  1 11  1  0
  5 16  1  0
  5 17  1  0
  1  2  1  0
  1 10  1  0
  1 12  1  0
  2  5  1  0
  2  3  1  0
  5  6  1  0
  3 13  1  0
  3  4  1  0
  3 14  1  0
  6 18  1  0
  4 15  1  0
M  END
$$$$

     RDKit          3D

 19 20  0  0  0  0  0  0  0  0999 V2000
   -1.3650    1.9466   -0.4168 C   0  0  0  0  0  0  0  0  0  0  0  0
   -0.1452    1.3296   -0.8013 O   0  0  0  0  0  0  0  0  0  0  0  0
   -0.2391   -0.1406   -0.8063 C   0  0  0  0  0  0  0  0  0  0  0  0
    1.0819   -0.7920   -1.1382 C   0  0  0  0  0  0  0  0  0  0  0  0
    1.6792   -0.9186    0.2689 C   0  0  0  0  0  0  0  0  0  0  0  0
    0.5482   -1.3678    1.1246 N   0  0  0  0  0  0  0  0  0  0  0  0
   -0.1712   -0.2578    1.7827 C   0  0  0  0  0  0  0  0  0  0  0  0
   -0.6226   -0.8223    0.4860 C   0  0  0  0  0  0  0  0  0  0  0  0
   -2.1611    1.8423   -1.2337 H   0  0  0  0  0  0  0  0  0  0  0  0
   -1.7019    1.7105    0.6299 H   0  0  0  0  0  0  0  0  0  0  0  0
   -1.2469    3.0597   -0.4655 H   0  0  0  0  0  0  0  0  0  0  0  0
   -0.8405   -0.4016   -1.7837 H   0  0  0  0  0  0  0  0  0  0  0  0
    0.8439   -1.7905   -1.4623 H   0  0  0  0  0  0  0  0  0  0  0  0
    1.7171   -0.2646   -1.9156 H   0  0  0  0  0  0  0  0  0  0  0  0
    2.1196    0.0300    0.5252 H   0  0  0  0  0  0  0  0  0  0  0  0
    2.4222   -1.7222    0.2607 H   0  0  0  0  0  0  0  0  0  0  0  0
   -0.8309   -0.5821    2.6466 H   0  0  0  0  0  0  0  0  0  0  0  0
    0.4610    0.6075    1.8943 H   0  0  0  0  0  0  0  0  0  0  0  0
   -1.5490   -1.4660    0.4046 H   0  0  0  0  0  0  0  0  0  0  0  0
  5 15  1  0
  8 19  1  0
  3 12  1  0
  5  6  1  0
  6  8  1  0
  6  7  1  0
  5 16  1  0
  4  5  1  0
  3  8  1  0
  7  8  1  0
  4 13  1  0
  3  4  1  0
  2  3  1  0
  4 14  1  0
  1 10  1  0
  7 17  1  0
  7 18  1  0
  1  2  1  0
  1  9  1  0
  1 11  1  0
M  END
$$$$

     RDKit          3D

 20 20  0  0  0  0  0  0  0  0999 V2000
   -0.4300    0.9171    2.7264 C   0  0  0  0  0  0  0  0  0  0  0  0
   -0.4301    1.2783    1.1956 C   0  0  0  0  0  0  0  0  0  0  0  0
    0.2336    0.2780    0.2268 C   0  0  0  0  0  0  0  0  0  0  0  0
   -0.6330   -1.0299    0.0003 C   0  0  0  0  0  0  0  0  0  0  0  0
   -1.0555   -1.1404   -1.3902 O   0  0  0  0  0  0  0  0  0  0  0  0
    0.0757   -1.2031   -2.3053 C   0  0  0  0  0  0  0  0  0  0  0  0
    1.0736   -0.0634   -2.0393 C   0  0  0  0  0  0  0  0  0  0  0  0
    0.4966    0.8755   -1.0870 O   0  0  0  0  0  0  0  0  0  0  0  0
   -0.7020    1.8626    3.2108 H   0  0  0  0  0  0  0  0  0  0  0  0
   -1.1779    0.1791    3.0287 H   0  0  0  0  0  0  0  0  0  0  0  0
    0.5774    0.6525    3.0619 H   0  0  0  0  0  0  0  0  0  0  0  0
    0.1542    2.1908    1.0642 H   0  0  0  0  0  0  0  0  0  0  0  0
   -1.4244    1.5565    0.9024 H   0  0  0  0  0  0  0  0  0  0  0  0
    1.2201   -0.0353    0.5744 H   0  0  0  0  0  0  0  0  0  0  0  0
   -1.5364   -1.1103    0.6163 H   0  0  0  0  0  0  0  0  0  0  0  0
   -0.0181   -1.9118    0.2457 H   0  0  0  0  0  0  0  0  0  0  0  0
   -0.3246   -1.0852   -3.3464 H   0  0  0  0  0  0  0  0  0  0  0  0
    0.5558   -2.2101   -2.3195 H   0  0  0  0  0  0  0  0  0  0  0  0
    1.9262   -0.4399   -1.4515 H   0  0  0  0  0  0  0  0  0  0  0  0
    1.4190    0.4390   -2.9143 H   0  0  0  0  0  0  0  0  0  0  0  0
  6 17  1  0
  7 20  1  0
  7 19  1  0
  6  7  1  0
  7  8  1  0
  6 18  1  0
  5  6  1  0
  4  5  1  0
  3  8  1  0
  3 14  1  0
  3  4  1  0
  2  3  1  0
  4 16  1  0
  4 15  1  0
  1 10  1  0
  1  2  1  0
  2 13  1  0
  2 12  1  0
  1  9  1  0
  1 11  1  0
M  END
$$$$

     RDKit          3D

 19 20  0  0  0  0  0  0  0  0999 V2000
    1.4466   -0.6952    2.4208 C   0  0  0  0  0  0  0  0  0  0  0  0
    0.9619   -1.1768    1.0321 N   0  0  0  0  0  0  0  0  0  0  0  0
   -0.3661   -0.5848    0.7163 C   0  0  0  0  0  0  0  0  0  0  0  0
   -1.4670    0.3132    0.1969 C   0  0  0  0  0  0  0  0  0  0  0  0
   -1.0966    1.5049    0.9901 O   0  0  0  0  0  0  0  0  0  0  0  0
   -1.1231   -0.1882   -1.3281 C   0  0  0  0  0  0  0  0  0  0  0  0
    0.2029   -0.0349   -2.4196 C   0  0  0  0  0  0  0  0  0  0  0  0
    0.5894    0.7533   -1.2344 C   0  0  0  0  0  0  0  0  0  0  0  0
    0.1401   -0.5219   -0.6239 N   0  0  0  0  0  0  0  0  0  0  0  0
    0.5152   -0.8151    3.1330 H   0  0  0  0  0  0  0  0  0  0  0  0
    2.1794   -1.4597    2.6983 H   0  0  0  0  0  0  0  0  0  0  0  0
    1.9155    0.3599    2.4412 H   0  0  0  0  0  0  0  0  0  0  0  0
   -2.5185    0.1947    0.2068 H   0  0  0  0  0  0  0  0  0  0  0  0
   -1.6877    1.3092    1.8277 H   0  0  0  0  0  0  0  0  0  0  0  0
   -2.0806   -0.8298   -1.7321 H   0  0  0  0  0  0  0  0  0  0  0  0
    0.8594   -1.0104   -2.4914 H   0  0  0  0  0  0  0  0  0  0  0  0
   -0.3602    0.0798   -3.4292 H   0  0  0  0  0  0  0  0  0  0  0  0
    1.6978    1.0227   -1.0800 H   0  0  0  0  0  0  0  0  0  0  0  0
    0.1918    1.7791   -1.3245 H   0  0  0  0  0  0  0  0  0  0  0  0
  6 15  1  0
  4 13  1  0
  4  6  1  0
  4  5  1  0
  3  4  1  0
  6  9  1  0
  6  7  1  0
  5 14  1  0
  7 16  1  0
  3  9  1  0
  8  9  1  0
  7 17  1  0
  7  8  1  0
  2  3  1  0
  1 11  1  0
  8 18  1  0
  8 19  1  0
  1  2  1  0
  1 12  1  0
  1 10  1  0
M  END
$$$$

     RDKit          3D

 17 18  0  0  0  0  0  0  0  0999 V2000
   -1.6813    0.5602   -2.6093 O   0  0  0  0  0  0  0  0  0  0  0  0
   -1.1551    0.0694   -1.6234 C   0  0  0  0  0  0  0  0  0  0  0  0
   -1.6768    0.1738   -0.2204 C   0  0  0  0  0  0  0  0  0  0  0  0
   -0.4820   -0.2135    0.6098 C   0  0  0  0  0  0  0  0  0  0  0  0
    0.4345    0.9593    0.9936 C   0  0  0  0  0  0  0  0  0  0  0  0
    1.7969    0.4306    0.6809 C   0  0  0  0  0  0  0  0  0  0  0  0
    1.7363   -0.6842   -0.0579 C   0  0  0  0  0  0  0  0  0  0  0  0
    0.3273   -1.0835   -0.3365 C   0  0  0  0  0  0  0  0  0  0  0  0
   -0.0270   -0.7023   -1.6600 O   0  0  0  0  0  0  0  0  0  0  0  0
   -2.4919   -0.5522   -0.1086 H   0  0  0  0  0  0  0  0  0  0  0  0
   -2.0420    1.1826   -0.0010 H   0  0  0  0  0  0  0  0  0  0  0  0
   -0.7733   -0.7513    1.5204 H   0  0  0  0  0  0  0  0  0  0  0  0
    0.3336    1.1925    2.0593 H   0  0  0  0  0  0  0  0  0  0  0  0
    0.2415    1.8674    0.4177 H   0  0  0  0  0  0  0  0  0  0  0  0
    2.7141    0.9209    0.9767 H   0  0  0  0  0  0  0  0  0  0  0  0
    2.5925   -1.2159   -0.4470 H   0  0  0  0  0  0  0  0  0  0  0  0
    0.1529   -2.1539   -0.1941 H   0  0  0  0  0  0  0  0  0  0  0  0
  8 17  1  0
  1  2  2  0
  2  9  1  0
  8  9  1  0
  2  3  1  0
  4 12  1  0
  3 10  1  0
  4  8  1  0
  7  8  1  0
  3  4  1  0
  3 11  1  0
  4  5  1  0
  7 16  1  0
  6  7  2  0
  5 13  1  0
  5  6  1  0
  5 14  1  0
  6 15  1  0
M  END
$$$$

     RDKit          3D

 21 22  0  0  0  0  0  0  0  0999 V2000
   -0.5847    1.9440   -0.7851 C   0  0  0  0  0  0  0  0  0  0  0  0
    0.5788    0.9765   -0.9086 C   0  0  0  0  0  0  0  0  0  0  0  0
    1.5222    0.9082    0.2709 C   0  0  0  0  0  0  0  0  0  0  0  0
    1.7135   -0.3735    0.6248 C   0  0  0  0  0  0  0  0  0  0  0  0
    0.9718   -1.3327   -0.2078 C   0  0  0  0  0  0  0  0  0  0  0  0
   -0.5257   -1.4333   -0.1819 C   0  0  0  0  0  0  0  0  0  0  0  0
   -1.3418   -1.1434    1.0356 C   0  0  0  0  0  0  0  0  0  0  0  0
   -1.1052    0.1344    1.5956 O   0  0  0  0  0  0  0  0  0  0  0  0
    0.1419   -0.4609   -1.1562 C   0  0  0  0  0  0  0  0  0  0  0  0
   -0.8619    2.3160   -1.7851 H   0  0  0  0  0  0  0  0  0  0  0  0
   -1.4896    1.4739   -0.3775 H   0  0  0  0  0  0  0  0  0  0  0  0
   -0.3232    2.8202   -0.1709 H   0  0  0  0  0  0  0  0  0  0  0  0
    1.1839    1.2975   -1.7638 H   0  0  0  0  0  0  0  0  0  0  0  0
    1.9686    1.7698    0.7491 H   0  0  0  0  0  0  0  0  0  0  0  0
    2.3395   -0.6866    1.4505 H   0  0  0  0  0  0  0  0  0  0  0  0
    1.5514   -2.1401   -0.6468 H   0  0  0  0  0  0  0  0  0  0  0  0
   -0.9305   -2.3322   -0.6389 H   0  0  0  0  0  0  0  0  0  0  0  0
   -1.1338   -1.9065    1.7950 H   0  0  0  0  0  0  0  0  0  0  0  0
   -2.4070   -1.2086    0.7860 H   0  0  0  0  0  0  0  0  0  0  0  0
   -1.3873    0.0929    2.5238 H   0  0  0  0  0  0  0  0  0  0  0  0
    0.1192   -0.7159   -2.2088 H   0  0  0  0  0  0  0  0  0  0  0  0
  3 14  1  0
  1 11  1  0
  3  4  2  0
  2  3  1  0
  4 15  1  0
  1 10  1  0
  1  2  1  0
  1 12  1  0
  4  5  1  0
  2 13  1  0
  2  9  1  0
  7 18  1  0
  7 19  1  0
  7  8  1  0
  6  7  1  0
  5  9  1  0
  5  6  1  0
  5 16  1  0
  8 20  1  0
  6  9  1  0
  9 21  1  0
  6 17  1  0
M  END
$$$$

     RDKit          3D

 19 20  0  0  0  0  0  0  0  0999 V2000
   -0.5834   -3.7965    0.3689 O   0  0  0  0  0  0  0  0  0  0  0  0
   -1.2342   -2.8445   -0.0926 C   0  0  0  0  0  0  0  0  0  0  0  0
   -1.1564   -1.5316    0.2861 N   0  0  0  0  0  0  0  0  0  0  0  0
   -0.1188   -0.9579    1.0882 C   0  0  0  0  0  0  0  0  0  0  0  0
    0.7346   -0.0003    0.1287 C   0  0  0  0  0  0  0  0  0  0  0  0
    1.3839    1.4346   -0.2698 C   0  0  0  0  0  0  0  0  0  0  0  0
    0.0530    2.0209    0.3601 C   0  0  0  0  0  0  0  0  0  0  0  0
   -0.5770    0.9169   -0.5248 N   0  0  0  0  0  0  0  0  0  0  0  0
    0.5084    1.2784   -1.5495 C   0  0  0  0  0  0  0  0  0  0  0  0
   -1.9764   -2.9826   -0.8800 H   0  0  0  0  0  0  0  0  0  0  0  0
   -1.6294   -0.9065   -0.3387 H   0  0  0  0  0  0  0  0  0  0  0  0
   -0.5847   -0.3767    1.9675 H   0  0  0  0  0  0  0  0  0  0  0  0
    0.5099   -1.7528    1.4866 H   0  0  0  0  0  0  0  0  0  0  0  0
    1.3477    0.2206    1.0329 H   0  0  0  0  0  0  0  0  0  0  0  0
    2.4499    1.6515   -0.2601 H   0  0  0  0  0  0  0  0  0  0  0  0
   -0.1890    3.0638    0.1271 H   0  0  0  0  0  0  0  0  0  0  0  0
   -0.0437    1.9536    1.4733 H   0  0  0  0  0  0  0  0  0  0  0  0
    0.2757    2.1386   -2.2243 H   0  0  0  0  0  0  0  0  0  0  0  0
    0.8301    0.4705   -2.1795 H   0  0  0  0  0  0  0  0  0  0  0  0
  7 16  1  0
  7 17  1  0
  7  8  1  0
  6  7  1  0
  3 11  1  0
  8  9  1  0
  5  8  1  0
  9 19  1  0
  4 13  1  0
  2 10  1  0
  2  3  1  0
  3  4  1  0
  6  9  1  0
  9 18  1  0
  1  2  2  0
  4  5  1  0
  4 12  1  0
  5  6  1  0
  6 15  1  0
  5 14  1  0
M  END
$$$$

     RDKit          3D

 16 16  0  0  0  0  0  0  0  0999 V2000
    0.3874   -2.2944    0.4742 O   0  0  0  0  0  0  0  0  0  0  0  0
    0.2641   -1.4141   -0.6376 C   0  0  0  0  0  0  0  0  0  0  0  0
   -0.8576   -0.4124   -0.3830 C   0  0  0  0  0  0  0  0  0  0  0  0
   -0.9930    0.5384   -1.5116 N   0  0  0  0  0  0  0  0  0  0  0  0
   -0.4758    1.5847   -0.8043 C   0  0  0  0  0  0  0  0  0  0  0  0
   -0.0295    2.6314   -1.2077 O   0  0  0  0  0  0  0  0  0  0  0  0
   -0.6552    0.8322    0.5382 C   0  0  0  0  0  0  0  0  0  0  0  0
    0.5090    0.8525    1.4011 C   0  0  0  0  0  0  0  0  0  0  0  0
    1.4690    0.8791    2.1231 C   0  0  0  0  0  0  0  0  0  0  0  0
    0.8521   -1.8153    1.1833 H   0  0  0  0  0  0  0  0  0  0  0  0
    0.0264   -2.0299   -1.5112 H   0  0  0  0  0  0  0  0  0  0  0  0
    1.2305   -0.9321   -0.8209 H   0  0  0  0  0  0  0  0  0  0  0  0
   -1.8116   -0.9235   -0.1978 H   0  0  0  0  0  0  0  0  0  0  0  0
   -0.6653    0.4379   -2.4650 H   0  0  0  0  0  0  0  0  0  0  0  0
   -1.5722    1.1440    1.0556 H   0  0  0  0  0  0  0  0  0  0  0  0
    2.3216    0.9215    2.7636 H   0  0  0  0  0  0  0  0  0  0  0  0
  5  6  2  0
  4 14  1  0
  4  5  1  0
  5  7  1  0
  3  4  1  0
  2 11  1  0
  1 10  1  0
  1  2  1  0
  2  3  1  0
  2 12  1  0
  3  7  1  0
  3 13  1  0
  7  8  1  0
  7 15  1  0
  8  9  3  0
  9 16  1  0
M  END
$$$$

     RDKit          3D

 19 22  0  0  0  0  0  0  0  0999 V2000
   -0.8740    1.4595   -0.2826 C   0  0  0  0  0  0  0  0  0  0  0  0
    0.2928    0.9528   -1.1142 C   0  0  0  0  0  0  0  0  0  0  0  0
    1.3892    0.0532   -0.5443 C   0  0  0  0  0  0  0  0  0  0  0  0
    1.4140   -0.4174    0.8992 C   0  0  0  0  0  0  0  0  0  0  0  0
    0.0103   -0.9707    1.2294 C   0  0  0  0  0  0  0  0  0  0  0  0
   -0.8667    0.0529    1.7635 O   0  0  0  0  0  0  0  0  0  0  0  0
   -1.4837    0.2455    0.4679 C   0  0  0  0  0  0  0  0  0  0  0  0
   -0.7647   -1.0060   -0.1153 C   0  0  0  0  0  0  0  0  0  0  0  0
    0.1743   -0.5402   -1.1898 C   0  0  0  0  0  0  0  0  0  0  0  0
   -1.6281    1.8455   -0.9812 H   0  0  0  0  0  0  0  0  0  0  0  0
   -0.5925    2.2769    0.3907 H   0  0  0  0  0  0  0  0  0  0  0  0
    0.5042    1.5398   -2.0039 H   0  0  0  0  0  0  0  0  0  0  0  0
    2.3457   -0.0060   -1.0495 H   0  0  0  0  0  0  0  0  0  0  0  0
    2.1458   -1.2344    0.9940 H   0  0  0  0  0  0  0  0  0  0  0  0
    1.7173    0.3808    1.5856 H   0  0  0  0  0  0  0  0  0  0  0  0
   -0.0063   -1.8882    1.8224 H   0  0  0  0  0  0  0  0  0  0  0  0
   -2.5726    0.2202    0.5380 H   0  0  0  0  0  0  0  0  0  0  0  0
   -1.3904   -1.8800   -0.2921 H   0  0  0  0  0  0  0  0  0  0  0  0
    0.1853   -1.0842   -2.1177 H   0  0  0  0  0  0  0  0  0  0  0  0
  1 11  1  0
  7 17  1  0
  9 19  1  0
  2 12  1  0
  1  7  1  0
  1  2  1  0
  1 10  1  0
  8 18  1  0
  7  8  1  0
  6  7  1  0
  2  9  1  0
  2  3  1  0
  8  9  1  0
  3  9  1  0
  5  8  1  0
  3 13  1  0
  3  4  1  0
  5  6  1  0
  5 16  1  0
  4  5  1  0
  4 15  1  0
  4 14  1  0
M  END
$$$$

     RDKit          3D

 16 16  0  0  0  0  0  0  0  0999 V2000
    0.5758   -1.2627   -1.1074 N   0  0  0  0  0  0  0  0  0  0  0  0
   -1.8820    0.5626   -0.7355 H   0  0  0  0  0  0  0  0  0  0  0  0
    1.2043   -1.9218   -1.5700 H   0  0  0  0  0  0  0  0  0  0  0  0
   -0.3763   -1.5808   -1.3016 H   0  0  0  0  0  0  0  0  0  0  0  0
    0.8340   -1.2478    0.3241 C   0  0  0  0  0  0  0  0  0  0  0  0
    0.2922   -0.0672    1.0580 C   0  0  0  0  0  0  0  0  0  0  0  0
   -1.1210    0.3048    0.9979 N   0  0  0  0  0  0  0  0  0  0  0  0
   -0.0984    1.2438    0.4188 C   0  0  0  0  0  0  0  0  0  0  0  0
   -0.2738    1.4747   -1.0424 C   0  0  0  0  0  0  0  0  0  0  0  0
    0.5584    2.0573   -1.7226 O   0  0  0  0  0  0  0  0  0  0  0  0
   -1.4933    1.0649   -1.4883 O   0  0  0  0  0  0  0  0  0  0  0  0
    1.9228   -1.2496    0.4611 H   0  0  0  0  0  0  0  0  0  0  0  0
    0.4606   -2.1751    0.7790 H   0  0  0  0  0  0  0  0  0  0  0  0
    0.7633   -0.0059    2.0315 H   0  0  0  0  0  0  0  0  0  0  0  0
   -1.4278    0.6566    1.9104 H   0  0  0  0  0  0  0  0  0  0  0  0
    0.0612    2.1462    0.9871 H   0  0  0  0  0  0  0  0  0  0  0  0
  1  4  1  0
  7 15  1  0
  1  3  1  0
  5 13  1  0
  1  5  1  0
  6  7  1  0
  7  8  1  0
  5  6  1  0
  5 12  1  0
  6 14  1  0
  6  8  1  0
  2 11  1  0
  8 16  1  0
  8  9  1  0
  9 11  1  0
  9 10  2  0
M  END
$$$$

     RDKit          3D

 18 20  0  0  0  0  0  0  0  0999 V2000
   -1.6242    1.0085    0.1442 C   0  0  0  0  0  0  0  0  0  0  0  0
   -1.7000   -0.3785   -0.4957 C   0  0  0  0  0  0  0  0  0  0  0  0
   -0.3487   -0.5869   -0.0347 C   0  0  0  0  0  0  0  0  0  0  0  0
    0.5150   -0.2720    1.1800 C   0  0  0  0  0  0  0  0  0  0  0  0
    1.3213    0.4587   -0.0367 C   0  0  0  0  0  0  0  0  0  0  0  0
    1.8257   -0.9908   -0.4652 C   0  0  0  0  0  0  0  0  0  0  0  0
    0.5626   -1.6231   -0.6901 O   0  0  0  0  0  0  0  0  0  0  0  0
   -0.1036    1.0295   -0.3762 C   0  0  0  0  0  0  0  0  0  0  0  0
   -2.5128    1.5327   -0.2191 H   0  0  0  0  0  0  0  0  0  0  0  0
   -1.5255    1.3076    1.2147 H   0  0  0  0  0  0  0  0  0  0  0  0
   -2.6828   -0.9524   -0.0101 H   0  0  0  0  0  0  0  0  0  0  0  0
   -1.7749   -0.6164   -1.6608 H   0  0  0  0  0  0  0  0  0  0  0  0
    1.4194   -0.6906    1.7243 H   0  0  0  0  0  0  0  0  0  0  0  0
   -0.1498    0.2359    1.9462 H   0  0  0  0  0  0  0  0  0  0  0  0
    2.0726    1.2423   -0.2208 H   0  0  0  0  0  0  0  0  0  0  0  0
    2.1643   -1.6563    0.3408 H   0  0  0  0  0  0  0  0  0  0  0  0
    2.5593   -0.8333   -1.2147 H   0  0  0  0  0  0  0  0  0  0  0  0
   -0.0179    1.7851   -1.1262 H   0  0  0  0  0  0  0  0  0  0  0  0
  1 10  1  0
  8 18  1  0
  2 11  1  0
  1  8  1  0
  1  2  1  0
  1  9  1  0
  3  8  1  0
  5  8  1  0
  2 12  1  0
  2  3  1  0
  4 13  1  0
  3  4  1  0
  3  7  1  0
  5 15  1  0
  4  5  1  0
  5  6  1  0
  4 14  1  0
  6  7  1  0
  6 16  1  0
  6 17  1  0
M  END
$$$$

     RDKit          3D

 14 14  0  0  0  0  0  0  0  0999 V2000
   -1.2355    0.0113   -2.4701 N   0  0  0  0  0  0  0  0  0  0  0  0
    0.2096    0.0191   -2.3211 C   0  0  0  0  0  0  0  0  0  0  0  0
    0.7097   -0.8460   -1.3075 O   0  0  0  0  0  0  0  0  0  0  0  0
    0.4860   -0.4741   -0.0442 C   0  0  0  0  0  0  0  0  0  0  0  0
    1.3003   -0.5676    1.0639 C   0  0  0  0  0  0  0  0  0  0  0  0
    0.5837   -0.0579    2.1728 C   0  0  0  0  0  0  0  0  0  0  0  0
   -0.6637    0.3051    1.7205 C   0  0  0  0  0  0  0  0  0  0  0  0
   -0.7226    0.0227    0.3828 N   0  0  0  0  0  0  0  0  0  0  0  0
   -1.4732    0.6065   -3.2699 H   0  0  0  0  0  0  0  0  0  0  0  0
    0.5968    1.0336   -2.1935 H   0  0  0  0  0  0  0  0  0  0  0  0
    2.3108   -0.9518    1.0654 H   0  0  0  0  0  0  0  0  0  0  0  0
    0.9396    0.0276    3.1903 H   0  0  0  0  0  0  0  0  0  0  0  0
   -1.5141    0.7323    2.2339 H   0  0  0  0  0  0  0  0  0  0  0  0
   -1.5275    0.1393   -0.2231 H   0  0  0  0  0  0  0  0  0  0  0  0
  2 10  1  0
  6 12  1  0
  1  9  1  0
  5 11  1  0
  5  6  1  0
  6  7  2  0
  4  5  2  0
  1  2  1  0
  2  3  1  0
  7 13  1  0
  7  8  1  0
  4  8  1  0
  3  4  1  0
  8 14  1  0
M  END
$$$$

     RDKit          3D

 14 15  0  0  0  0  0  0  0  0999 V2000
   -0.9135   -0.8460   -2.1309 N   0  0  0  0  0  0  0  0  0  0  0  0
   -0.4422   -1.0647   -0.7779 C   0  0  0  0  0  0  0  0  0  0  0  0
   -1.4479   -0.5860    0.1760 N   0  0  0  0  0  0  0  0  0  0  0  0
   -0.6315    0.6190    0.4884 C   0  0  0  0  0  0  0  0  0  0  0  0
   -0.3838    0.7722    1.9122 C   0  0  0  0  0  0  0  0  0  0  0  0
   -0.1839    0.8551    3.0532 N   0  0  0  0  0  0  0  0  0  0  0  0
    0.4603   -0.0334   -0.2447 C   0  0  0  0  0  0  0  0  0  0  0  0
    1.9372    0.0591   -0.1969 C   0  0  0  0  0  0  0  0  0  0  0  0
    1.1840    0.7986   -1.1685 O   0  0  0  0  0  0  0  0  0  0  0  0
   -1.9259   -0.7168   -2.1545 H   0  0  0  0  0  0  0  0  0  0  0  0
   -1.5510   -1.2204    0.9697 H   0  0  0  0  0  0  0  0  0  0  0  0
   -1.0235    1.5289    0.0192 H   0  0  0  0  0  0  0  0  0  0  0  0
    2.4034    0.6184    0.6063 H   0  0  0  0  0  0  0  0  0  0  0  0
    2.5184   -0.7840   -0.5517 H   0  0  0  0  0  0  0  0  0  0  0  0
  1 10  1  0
  1  2  1  0
  7  9  1  0
  8  9  1  0
  2  7  1  0
  2  3  1  0
  4 12  1  0
  7  8  1  0
  4  7  1  0
  3 11  1  0
  8 14  1  0
  3  4  1  0
  8 13  1  0
  4  5  1  0
  5  6  3  0
M  END
$$$$

     RDKit          3D

 16 15  0  0  0  0  0  0  0  0999 V2000
    0.0267    0.3145   -2.2156 O   0  0  0  0  0  0  0  0  0  0  0  0
   -0.3535   -1.0338   -2.1837 C   0  0  0  0  0  0  0  0  0  0  0  0
   -0.3345   -1.4742   -0.8246 C   0  0  0  0  0  0  0  0  0  0  0  0
   -0.3360   -1.0824    0.2985 C   0  0  0  0  0  0  0  0  0  0  0  0
   -0.3648    0.1193    1.2739 C   0  0  0  0  0  0  0  0  0  0  0  0
    1.0002    0.8457    1.3835 C   0  0  0  0  0  0  0  0  0  0  0  0
    1.5855    1.3436    0.1614 O   0  0  0  0  0  0  0  0  0  0  0  0
   -1.1572   -0.1135    2.4679 C   0  0  0  0  0  0  0  0  0  0  0  0
   -1.8294   -0.3884    3.3810 N   0  0  0  0  0  0  0  0  0  0  0  0
   -0.8038    0.8759   -2.1915 H   0  0  0  0  0  0  0  0  0  0  0  0
    0.5793   -1.5307   -2.6075 H   0  0  0  0  0  0  0  0  0  0  0  0
   -1.2146   -1.3639   -2.8009 H   0  0  0  0  0  0  0  0  0  0  0  0
   -0.9497    0.7658    0.6580 H   0  0  0  0  0  0  0  0  0  0  0  0
    0.8395    1.7963    1.9533 H   0  0  0  0  0  0  0  0  0  0  0  0
    1.8073    0.2388    1.8490 H   0  0  0  0  0  0  0  0  0  0  0  0
    1.5050    0.6872   -0.6029 H   0  0  0  0  0  0  0  0  0  0  0  0
  6 14  1  0
  5 13  1  0
  1 10  1  0
  1  2  1  0
  2 11  1  0
  6  7  1  0
  7 16  1  0
  5  6  1  0
  6 15  1  0
  4  5  1  0
  5  8  1  0
  3  4  3  0
  2  3  1  0
  2 12  1  0
  8  9  3  0
M  END
$$$$

     RDKit          3D

 23 24  0  0  0  0  0  0  0  0999 V2000
   -0.8898   -0.6435   -1.0971 C   0  0  0  0  0  0  0  0  0  0  0  0
   -0.0405   -1.6745   -0.3410 C   0  0  0  0  0  0  0  0  0  0  0  0
    1.3232   -1.0189   -0.7317 C   0  0  0  0  0  0  0  0  0  0  0  0
    0.5836    0.0271   -1.4581 C   0  0  0  0  0  0  0  0  0  0  0  0
    0.5973    1.4227   -1.2459 C   0  0  0  0  0  0  0  0  0  0  0  0
   -0.1649    2.0232   -0.3227 C   0  0  0  0  0  0  0  0  0  0  0  0
   -0.7103    1.4442    0.9757 C   0  0  0  0  0  0  0  0  0  0  0  0
   -0.1276    0.1039    1.6466 C   0  0  0  0  0  0  0  0  0  0  0  0
   -0.3170   -1.3789    1.1562 C   0  0  0  0  0  0  0  0  0  0  0  0
   -1.4249   -0.2616   -0.1915 H   0  0  0  0  0  0  0  0  0  0  0  0
   -1.5105   -0.5404   -2.0124 H   0  0  0  0  0  0  0  0  0  0  0  0
   -0.2745   -2.7454   -0.8388 H   0  0  0  0  0  0  0  0  0  0  0  0
    2.0184   -0.7820    0.1856 H   0  0  0  0  0  0  0  0  0  0  0  0
    1.9950   -1.7453   -1.4084 H   0  0  0  0  0  0  0  0  0  0  0  0
    0.8786   -0.0881   -2.5812 H   0  0  0  0  0  0  0  0  0  0  0  0
    0.9783    2.1098   -2.0373 H   0  0  0  0  0  0  0  0  0  0  0  0
   -0.5619    3.0666   -0.5437 H   0  0  0  0  0  0  0  0  0  0  0  0
   -1.5539    1.8078    1.5775 H   0  0  0  0  0  0  0  0  0  0  0  0
   -0.1858    2.3390    1.6286 H   0  0  0  0  0  0  0  0  0  0  0  0
   -0.6497    0.0214    2.6391 H   0  0  0  0  0  0  0  0  0  0  0  0
    0.9490    0.3062    1.9270 H   0  0  0  0  0  0  0  0  0  0  0  0
   -1.3180   -1.7849    1.3729 H   0  0  0  0  0  0  0  0  0  0  0  0
    0.4057   -2.0085    1.7007 H   0  0  0  0  0  0  0  0  0  0  0  0
  7 18  1  0
  8 20  1  0
  6 17  1  0
  7 19  1  0
  7  8  1  0
  6  7  1  0
  8 21  1  0
  8  9  1  0
  5  6  2  3
  9 23  1  0
  9 22  1  0
  2  9  1  0
  5 16  1  0
  4  5  1  0
  1 11  1  0
  1  4  1  0
  1  2  1  0
  1 10  1  0
  4 15  1  0
  3  4  1  0
  2  3  1  0
  2 12  1  0
  3 13  1  0
  3 14  1  0
M  END
$$$$

     RDKit          3D

 13 13  0  0  0  0  0  0  0  0999 V2000
   -1.3325   -1.4674   -0.5603 C   0  0  0  0  0  0  0  0  0  0  0  0
   -0.7639   -0.0720   -0.5415 C   0  0  0  0  0  0  0  0  0  0  0  0
   -1.2880    0.8367   -1.1872 O   0  0  0  0  0  0  0  0  0  0  0  0
    0.4035    0.1524    0.2531 C   0  0  0  0  0  0  0  0  0  0  0  0
    1.1522    1.2725    0.4833 C   0  0  0  0  0  0  0  0  0  0  0  0
    0.9114    2.4868   -0.0414 O   0  0  0  0  0  0  0  0  0  0  0  0
    2.1729    0.9551    1.3250 N   0  0  0  0  0  0  0  0  0  0  0  0
    2.0877   -0.3373    1.6323 N   0  0  0  0  0  0  0  0  0  0  0  0
    0.9759   -0.8579    0.9633 O   0  0  0  0  0  0  0  0  0  0  0  0
   -2.2161   -1.4933   -1.2046 H   0  0  0  0  0  0  0  0  0  0  0  0
   -1.6299   -1.7640    0.4493 H   0  0  0  0  0  0  0  0  0  0  0  0
   -0.5927   -2.1678   -0.9570 H   0  0  0  0  0  0  0  0  0  0  0  0
    0.1195    2.4562   -0.6143 H   0  0  0  0  0  0  0  0  0  0  0  0
  7  8  2  0
  8  9  1  0
  5  7  1  0
  4  9  1  0
  4  5  2  0
  5  6  1  0
  2  4  1  0
  6 13  1  0
  1 11  1  0
  1 10  1  0
  1  2  1  0
  2  3  2  0
  1 12  1  0
M  END
$$$$

     RDKit          3D

 19 19  0  0  0  0  0  0  0  0999 V2000
    0.8706    1.1109    1.9167 C   0  0  0  0  0  0  0  0  0  0  0  0
   -0.0550    0.0112    1.6490 O   0  0  0  0  0  0  0  0  0  0  0  0
    0.3829   -0.9535    0.6540 C   0  0  0  0  0  0  0  0  0  0  0  0
   -0.9315   -1.4598    0.0131 C   0  0  0  0  0  0  0  0  0  0  0  0
   -1.1961   -0.6057   -1.2342 C   0  0  0  0  0  0  0  0  0  0  0  0
    0.1243    0.1143   -1.4367 C   0  0  0  0  0  0  0  0  0  0  0  0
    0.0579    1.6107   -1.4674 C   0  0  0  0  0  0  0  0  0  0  0  0
    0.5135    2.2535   -2.4134 O   0  0  0  0  0  0  0  0  0  0  0  0
    1.1033   -0.3420   -0.5860 C   0  0  0  0  0  0  0  0  0  0  0  0
    1.5559    0.8140    2.7496 H   0  0  0  0  0  0  0  0  0  0  0  0
    0.2616    1.9626    2.2514 H   0  0  0  0  0  0  0  0  0  0  0  0
    1.4539    1.4580    1.0735 H   0  0  0  0  0  0  0  0  0  0  0  0
    0.9326   -1.7762    1.1438 H   0  0  0  0  0  0  0  0  0  0  0  0
   -0.8552   -2.5158   -0.2952 H   0  0  0  0  0  0  0  0  0  0  0  0
   -1.7828   -1.3605    0.7119 H   0  0  0  0  0  0  0  0  0  0  0  0
   -2.0350    0.1250   -1.0530 H   0  0  0  0  0  0  0  0  0  0  0  0
   -1.4961   -1.2442   -2.0957 H   0  0  0  0  0  0  0  0  0  0  0  0
   -0.4792    2.0518   -0.6114 H   0  0  0  0  0  0  0  0  0  0  0  0
    1.5744   -1.2543   -0.9699 H   0  0  0  0  0  0  0  0  0  0  0  0
  7  8  2  0
  7 18  1  0
  6  7  1  0
  6  9  2  0
  5  6  1  0
  5 16  1  0
  9 19  1  0
  3  9  1  0
  5 17  1  0
  4  5  1  0
  3 13  1  0
  3  4  1  0
  2  3  1  0
  4 14  1  0
  4 15  1  0
  1 11  1  0
  1 10  1  0
  1  2  1  0
  1 12  1  0
M  END
$$$$

     RDKit          3D

 17 19  0  0  0  0  0  0  0  0999 V2000
   -0.9471   -1.0292    1.6913 C   0  0  0  0  0  0  0  0  0  0  0  0
   -0.4403   -0.2404    0.5347 C   0  0  0  0  0  0  0  0  0  0  0  0
    0.5293    0.8929    0.7723 C   0  0  0  0  0  0  0  0  0  0  0  0
    1.1829    0.5158   -0.5997 C   0  0  0  0  0  0  0  0  0  0  0  0
    0.3769    1.0287   -1.7299 N   0  0  0  0  0  0  0  0  0  0  0  0
   -0.8116    0.2910   -1.8625 C   0  0  0  0  0  0  0  0  0  0  0  0
   -1.6477    0.4417   -2.7347 O   0  0  0  0  0  0  0  0  0  0  0  0
   -0.7850   -0.6888   -0.8231 N   0  0  0  0  0  0  0  0  0  0  0  0
    0.5579   -0.8042   -0.3867 C   0  0  0  0  0  0  0  0  0  0  0  0
   -0.1209   -1.4590    2.2687 H   0  0  0  0  0  0  0  0  0  0  0  0
   -1.5983   -1.8489    1.3668 H   0  0  0  0  0  0  0  0  0  0  0  0
   -1.5308   -0.3839    2.3581 H   0  0  0  0  0  0  0  0  0  0  0  0
    0.0812    1.8909    0.8229 H   0  0  0  0  0  0  0  0  0  0  0  0
    1.1893    0.7583    1.6378 H   0  0  0  0  0  0  0  0  0  0  0  0
    2.2617    0.6225   -0.7069 H   0  0  0  0  0  0  0  0  0  0  0  0
    0.6167    1.7289   -2.4149 H   0  0  0  0  0  0  0  0  0  0  0  0
    1.0859   -1.7163   -0.1944 H   0  0  0  0  0  0  0  0  0  0  0  0
  3 13  1  0
  4 15  1  0
  3 14  1  0
  3  4  1  0
  2  3  1  0
  1 11  1  0
  4  9  1  0
  4  5  1  0
  2  9  1  0
  1  2  1  0
  2  8  1  0
  9 17  1  0
  8  9  1  0
  1 10  1  0
  1 12  1  0
  5 16  1  0
  5  6  1  0
  6  8  1  0
  6  7  2  0
M  END
$$$$

     RDKit          3D

 15 15  0  0  0  0  0  0  0  0999 V2000
    2.0631   -0.5679   -1.5450 C   0  0  0  0  0  0  0  0  0  0  0  0
    1.0577   -0.0762   -0.5829 C   0  0  0  0  0  0  0  0  0  0  0  0
    1.1666    0.8896    0.3095 N   0  0  0  0  0  0  0  0  0  0  0  0
   -0.0563    0.8979    0.9034 C   0  0  0  0  0  0  0  0  0  0  0  0
   -0.4008    1.7321    1.8866 O   0  0  0  0  0  0  0  0  0  0  0  0
   -0.8796   -0.0564    0.3636 C   0  0  0  0  0  0  0  0  0  0  0  0
   -2.2627   -0.4934    0.6024 C   0  0  0  0  0  0  0  0  0  0  0  0
   -0.1620   -0.7008   -0.6086 O   0  0  0  0  0  0  0  0  0  0  0  0
    3.0011   -0.0148   -1.4402 H   0  0  0  0  0  0  0  0  0  0  0  0
    2.2697   -1.6283   -1.3742 H   0  0  0  0  0  0  0  0  0  0  0  0
    1.7043   -0.4430   -2.5709 H   0  0  0  0  0  0  0  0  0  0  0  0
    0.3829    2.2837    2.0532 H   0  0  0  0  0  0  0  0  0  0  0  0
   -2.5979   -1.1935   -0.1695 H   0  0  0  0  0  0  0  0  0  0  0  0
   -2.3428   -0.9926    1.5731 H   0  0  0  0  0  0  0  0  0  0  0  0
   -2.9434    0.3637    0.5994 H   0  0  0  0  0  0  0  0  0  0  0  0
  5 12  1  0
  4  5  1  0
  3  4  1  0
  2  3  2  0
  1 10  1  0
  4  6  2  0
  1  2  1  0
  2  8  1  0
  1  9  1  0
  1 11  1  0
  6  8  1  0
  6  7  1  0
  7 15  1  0
  7 13  1  0
  7 14  1  0
M  END
$$$$

     RDKit          3D

 21 21  0  0  0  0  0  0  0  0999 V2000
   -0.2324    3.8009   -0.7599 C   0  0  0  0  0  0  0  0  0  0  0  0
    0.6642    2.9331    0.1095 C   0  0  0  0  0  0  0  0  0  0  0  0
    0.0391    1.6381    0.3908 C   0  0  0  0  0  0  0  0  0  0  0  0
   -0.4348    0.5436    0.5416 C   0  0  0  0  0  0  0  0  0  0  0  0
   -0.9583   -0.7866    0.6665 C   0  0  0  0  0  0  0  0  0  0  0  0
   -1.2495   -1.3781   -0.6144 O   0  0  0  0  0  0  0  0  0  0  0  0
   -0.2098   -2.0073    0.1474 C   0  0  0  0  0  0  0  0  0  0  0  0
    1.1383   -1.9023   -0.5021 C   0  0  0  0  0  0  0  0  0  0  0  0
   -0.6020   -3.3676    0.6347 C   0  0  0  0  0  0  0  0  0  0  0  0
    0.3632    4.6176   -1.2042 H   0  0  0  0  0  0  0  0  0  0  0  0
   -1.0466    4.2524   -0.1624 H   0  0  0  0  0  0  0  0  0  0  0  0
   -0.6867    3.2259   -1.5896 H   0  0  0  0  0  0  0  0  0  0  0  0
    0.9096    3.4636    1.0379 H   0  0  0  0  0  0  0  0  0  0  0  0
    1.6182    2.7611   -0.4107 H   0  0  0  0  0  0  0  0  0  0  0  0
   -1.6921   -0.9394    1.4488 H   0  0  0  0  0  0  0  0  0  0  0  0
    1.0965   -2.3569   -1.4972 H   0  0  0  0  0  0  0  0  0  0  0  0
    1.8896   -2.4456    0.0886 H   0  0  0  0  0  0  0  0  0  0  0  0
    1.4877   -0.8675   -0.6227 H   0  0  0  0  0  0  0  0  0  0  0  0
    0.0239   -3.6717    1.4846 H   0  0  0  0  0  0  0  0  0  0  0  0
   -0.4742   -4.1099   -0.1588 H   0  0  0  0  0  0  0  0  0  0  0  0
   -1.6439   -3.4031    0.9719 H   0  0  0  0  0  0  0  0  0  0  0  0
  5  6  1  0
  6  7  1  0
  2 13  1  0
  1 11  1  0
  8 18  1  0
  8 16  1  0
  2  3  1  0
  1  2  1  0
  2 14  1  0
  1 10  1  0
  3  4  3  0
  1 12  1  0
  4  5  1  0
  5  7  1  0
  5 15  1  0
  7  8  1  0
  8 17  1  0
  7  9  1  0
  9 19  1  0
  9 21  1  0
  9 20  1  0
M  END
$$$$

     RDKit          3D

 18 22  0  0  0  0  0  0  0  0999 V2000
   -0.2658   -1.6016   -1.7115 C   0  0  0  0  0  0  0  0  0  0  0  0
   -0.8971   -1.3626   -0.2894 C   0  0  0  0  0  0  0  0  0  0  0  0
   -1.0569   -0.3535   -1.5183 N   0  0  0  0  0  0  0  0  0  0  0  0
   -0.5550    0.9965   -0.8969 C   0  0  0  0  0  0  0  0  0  0  0  0
   -0.6749    1.0638    0.7023 C   0  0  0  0  0  0  0  0  0  0  0  0
    0.9729    1.2301    1.0276 C   0  0  0  0  0  0  0  0  0  0  0  0
    0.8183   -0.1074    1.6741 C   0  0  0  0  0  0  0  0  0  0  0  0
   -0.1097   -0.3647    0.5575 C   0  0  0  0  0  0  0  0  0  0  0  0
    0.9485    0.6522   -0.5163 C   0  0  0  0  0  0  0  0  0  0  0  0
    0.7865   -1.7033   -1.4016 H   0  0  0  0  0  0  0  0  0  0  0  0
   -0.6601   -2.3730   -2.3069 H   0  0  0  0  0  0  0  0  0  0  0  0
   -1.9321   -1.4155    0.0181 H   0  0  0  0  0  0  0  0  0  0  0  0
   -1.0334    1.9169   -1.4589 H   0  0  0  0  0  0  0  0  0  0  0  0
   -1.6306    0.9772    1.3199 H   0  0  0  0  0  0  0  0  0  0  0  0
    1.8486    1.8385    1.4086 H   0  0  0  0  0  0  0  0  0  0  0  0
    0.3308   -0.1037    2.6999 H   0  0  0  0  0  0  0  0  0  0  0  0
    1.6845   -0.8457    1.6594 H   0  0  0  0  0  0  0  0  0  0  0  0
    1.4254    1.5559   -0.9675 H   0  0  0  0  0  0  0  0  0  0  0  0
  6 15  1  0
  7 17  1  0
  6  7  1  0
  5  6  1  0
  6  9  1  0
  5 14  1  0
  7 16  1  0
  7  8  1  0
  5  8  1  0
  4  5  1  0
  8  9  1  0
  4  9  1  0
  9 18  1  0
  4 13  1  0
  2  8  1  0
  3  4  1  0
  1 11  1  0
  2  3  1  0
  1  2  1  0
  2 12  1  0
  1  3  1  0
  1 10  1  0
M  END
$$$$

     RDKit          3D

 15 15  0  0  0  0  0  0  0  0999 V2000
   -0.2208   -1.8117   -2.4498 O   0  0  0  0  0  0  0  0  0  0  0  0
    0.4063   -1.1884   -1.6000 C   0  0  0  0  0  0  0  0  0  0  0  0
   -0.2570   -0.4722   -0.4580 C   0  0  0  0  0  0  0  0  0  0  0  0
   -0.1577    1.0148   -0.6533 C   0  0  0  0  0  0  0  0  0  0  0  0
   -0.6388    1.7321    0.4894 O   0  0  0  0  0  0  0  0  0  0  0  0
   -0.6095    1.2385    1.7561 C   0  0  0  0  0  0  0  0  0  0  0  0
   -1.0230    1.8871    2.7062 O   0  0  0  0  0  0  0  0  0  0  0  0
   -0.1017   -0.0136    1.9151 O   0  0  0  0  0  0  0  0  0  0  0  0
    0.4442   -0.7776    0.8357 C   0  0  0  0  0  0  0  0  0  0  0  0
    1.5048   -1.0946   -1.6689 H   0  0  0  0  0  0  0  0  0  0  0  0
   -1.3093   -0.7706   -0.3884 H   0  0  0  0  0  0  0  0  0  0  0  0
   -0.7589    1.3268   -1.5150 H   0  0  0  0  0  0  0  0  0  0  0  0
    0.8701    1.3440   -0.8495 H   0  0  0  0  0  0  0  0  0  0  0  0
    1.5214   -0.5777    0.7894 H   0  0  0  0  0  0  0  0  0  0  0  0
    0.3298   -1.8369    1.0909 H   0  0  0  0  0  0  0  0  0  0  0  0
  4 12  1  0
  4 13  1  0
  4  5  1  0
  3  4  1  0
  5  6  1  0
  3 11  1  0
  1  2  2  0
  2  3  1  0
  3  9  1  0
  2 10  1  0
  6  7  2  0
  6  8  1  0
  8  9  1  0
  9 14  1  0
  9 15  1  0
M  END
$$$$

     RDKit          3D

 15 15  0  0  0  0  0  0  0  0999 V2000
    0.5753   -3.2559    0.8619 C   0  0  0  0  0  0  0  0  0  0  0  0
   -0.2610   -2.4586    0.5303 C   0  0  0  0  0  0  0  0  0  0  0  0
   -1.2806   -1.4814    0.1199 C   0  0  0  0  0  0  0  0  0  0  0  0
   -0.6934   -0.4289   -0.7068 N   0  0  0  0  0  0  0  0  0  0  0  0
    0.0097    0.4942    0.1750 C   0  0  0  0  0  0  0  0  0  0  0  0
    1.0074    1.2947   -0.6662 C   0  0  0  0  0  0  0  0  0  0  0  0
    0.2690    2.5108   -0.1197 C   0  0  0  0  0  0  0  0  0  0  0  0
   -0.7607    1.6799    0.4671 O   0  0  0  0  0  0  0  0  0  0  0  0
    1.3048   -3.9812    1.1422 H   0  0  0  0  0  0  0  0  0  0  0  0
   -1.7919   -1.0615    0.9927 H   0  0  0  0  0  0  0  0  0  0  0  0
   -2.0558   -1.9842   -0.4660 H   0  0  0  0  0  0  0  0  0  0  0  0
    0.9567    1.1807   -1.7526 H   0  0  0  0  0  0  0  0  0  0  0  0
    2.0474    1.2179   -0.3409 H   0  0  0  0  0  0  0  0  0  0  0  0
   -0.1363    3.1896   -0.8764 H   0  0  0  0  0  0  0  0  0  0  0  0
    0.8094    3.0840    0.6395 H   0  0  0  0  0  0  0  0  0  0  0  0
  7 14  1  0
  6 12  1  0
  6  7  1  0
  7 15  1  0
  7  8  1  0
  6 13  1  0
  5  6  1  0
  5  8  1  0
  1  9  1  0
  4  5  1  0
  1  2  3  0
  3  4  1  0
  2  3  1  0
  3 11  1  0
  3 10  1  0
M  END
$$$$

     RDKit          3D

 16 16  0  0  0  0  0  0  0  0999 V2000
    0.7163    1.0647    1.6467 C   0  0  0  0  0  0  0  0  0  0  0  0
    0.0012    0.2303    0.6372 C   0  0  0  0  0  0  0  0  0  0  0  0
    0.3371    0.1314   -0.6589 C   0  0  0  0  0  0  0  0  0  0  0  0
    1.4242    0.7608   -1.2572 N   0  0  0  0  0  0  0  0  0  0  0  0
   -0.5019   -0.7532   -1.5515 C   0  0  0  0  0  0  0  0  0  0  0  0
   -0.1881   -0.9311   -2.7285 O   0  0  0  0  0  0  0  0  0  0  0  0
   -1.5922   -1.3521   -0.9782 N   0  0  0  0  0  0  0  0  0  0  0  0
   -1.9535   -1.2596    0.3308 N   0  0  0  0  0  0  0  0  0  0  0  0
   -1.2003   -0.5152    1.0734 C   0  0  0  0  0  0  0  0  0  0  0  0
    0.8642    2.0830    1.2720 H   0  0  0  0  0  0  0  0  0  0  0  0
    0.1524    1.1454    2.5851 H   0  0  0  0  0  0  0  0  0  0  0  0
    1.6929    0.6253    1.8803 H   0  0  0  0  0  0  0  0  0  0  0  0
    2.2449    0.8103   -0.6594 H   0  0  0  0  0  0  0  0  0  0  0  0
    1.6259    0.3277   -2.1629 H   0  0  0  0  0  0  0  0  0  0  0  0
   -2.1607   -1.9472   -1.5697 H   0  0  0  0  0  0  0  0  0  0  0  0
   -1.4624   -0.4207    2.1408 H   0  0  0  0  0  0  0  0  0  0  0  0
  1 11  1  0
  4 13  1  0
  9 16  1  0
  8  9  2  0
  7  8  1  0
  4 14  1  0
  2  9  1  0
  7 15  1  0
  5  7  1  0
  1  2  1  0
  2  3  2  0
  1 10  1  0
  1 12  1  0
  5  6  2  0
  3  5  1  0
  3  4  1  0
M  END
$$$$

     RDKit          3D

 21 23  0  0  0  0  0  0  0  0999 V2000
    1.4560    0.2754    1.4430 C   0  0  0  0  0  0  0  0  0  0  0  0
   -0.0307    0.6570    1.7662 C   0  0  0  0  0  0  0  0  0  0  0  0
   -0.9355   -0.2474    0.8995 C   0  0  0  0  0  0  0  0  0  0  0  0
   -1.1047   -1.1037   -0.4421 C   0  0  0  0  0  0  0  0  0  0  0  0
   -1.7461   -0.5560   -1.6591 C   0  0  0  0  0  0  0  0  0  0  0  0
   -1.1707    0.5426   -2.1511 C   0  0  0  0  0  0  0  0  0  0  0  0
    0.0274    0.8902   -1.2788 C   0  0  0  0  0  0  0  0  0  0  0  0
    0.0388   -0.2664   -0.2715 C   0  0  0  0  0  0  0  0  0  0  0  0
    1.3779   -0.7149    0.3073 C   0  0  0  0  0  0  0  0  0  0  0  0
    2.0598   -0.0760    2.3243 H   0  0  0  0  0  0  0  0  0  0  0  0
    2.0281    1.1656    1.0502 H   0  0  0  0  0  0  0  0  0  0  0  0
   -0.3074    0.5506    2.8532 H   0  0  0  0  0  0  0  0  0  0  0  0
   -0.1250    1.7311    1.4792 H   0  0  0  0  0  0  0  0  0  0  0  0
   -1.0751   -1.0457    1.6363 H   0  0  0  0  0  0  0  0  0  0  0  0
   -0.9800   -2.1788   -0.3871 H   0  0  0  0  0  0  0  0  0  0  0  0
   -2.5926   -1.0315   -2.1408 H   0  0  0  0  0  0  0  0  0  0  0  0
   -1.3165    1.1067   -3.0198 H   0  0  0  0  0  0  0  0  0  0  0  0
    0.9727    0.8549   -1.8454 H   0  0  0  0  0  0  0  0  0  0  0  0
   -0.1319    1.8837   -0.8689 H   0  0  0  0  0  0  0  0  0  0  0  0
    2.2465   -0.6757   -0.3619 H   0  0  0  0  0  0  0  0  0  0  0  0
    1.3089   -1.7616    0.6672 H   0  0  0  0  0  0  0  0  0  0  0  0
  1 11  1  0
  4 15  1  0
  1 10  1  0
  1  9  1  0
  1  2  1  0
  9 21  1  0
  2 12  1  0
  4  5  1  0
  4  8  1  0
  3  4  1  0
  8  9  1  0
  9 20  1  0
  2  3  1  0
  2 13  1  0
  5 16  1  0
  5  6  2  0
  3  8  1  0
  7  8  1  0
  3 14  1  0
  7 18  1  0
  6  7  1  0
  6 17  1  0
  7 19  1  0
M  END
$$$$

     RDKit          3D

 18 18  0  0  0  0  0  0  0  0999 V2000
    2.8637   -0.0538    0.5886 F   0  0  0  0  0  0  0  0  0  0  0  0
    1.5797   -0.0990    1.0239 C   0  0  0  0  0  0  0  0  0  0  0  0
    1.2434    1.1416    1.4063 F   0  0  0  0  0  0  0  0  0  0  0  0
    1.5623   -0.9104    2.1157 F   0  0  0  0  0  0  0  0  0  0  0  0
    0.6975   -0.6776   -0.0638 C   0  0  0  0  0  0  0  0  0  0  0  0
    0.4334    0.3100   -1.1863 C   0  0  0  0  0  0  0  0  0  0  0  0
   -0.7684    1.1392   -0.6996 C   0  0  0  0  0  0  0  0  0  0  0  0
   -1.5723    0.2062    0.2153 C   0  0  0  0  0  0  0  0  0  0  0  0
   -0.7325   -1.0596    0.3404 C   0  0  0  0  0  0  0  0  0  0  0  0
    1.2251   -1.5737   -0.4542 H   0  0  0  0  0  0  0  0  0  0  0  0
    1.3074    0.9517   -1.4306 H   0  0  0  0  0  0  0  0  0  0  0  0
    0.1713   -0.2621   -2.1003 H   0  0  0  0  0  0  0  0  0  0  0  0
   -0.4680    2.0176   -0.1213 H   0  0  0  0  0  0  0  0  0  0  0  0
   -1.3538    1.5181   -1.5551 H   0  0  0  0  0  0  0  0  0  0  0  0
   -1.6974    0.6746    1.1949 H   0  0  0  0  0  0  0  0  0  0  0  0
   -2.5747   -0.0063   -0.1665 H   0  0  0  0  0  0  0  0  0  0  0  0
   -0.8242   -1.5496    1.3231 H   0  0  0  0  0  0  0  0  0  0  0  0
   -1.0922   -1.7667   -0.4305 H   0  0  0  0  0  0  0  0  0  0  0  0
  2  4  1  0
  2  3  1  0
  1  2  1  0
  2  5  1  0
  6 12  1  0
  5 10  1  0
  6 11  1  0
  5  6  1  0
  5  9  1  0
  6  7  1  0
  9 17  1  0
  9 18  1  0
  8  9  1  0
  7 14  1  0
  7 13  1  0
  7  8  1  0
  8 16  1  0
  8 15  1  0
M  END
$$$$

     RDKit          3D

 11 10  0  0  0  0  0  0  0  0999 V2000
   -0.7159    0.0009    1.2770 C   0  0  0  0  0  0  0  0  0  0  0  0
   -0.2349   -0.6611    0.0147 C   0  0  0  0  0  0  0  0  0  0  0  0
   -0.1807   -1.8883   -0.0914 O   0  0  0  0  0  0  0  0  0  0  0  0
    0.2324    0.2574   -1.1053 C   0  0  0  0  0  0  0  0  0  0  0  0
    1.4475    0.9095   -0.7772 O   0  0  0  0  0  0  0  0  0  0  0  0
    0.1321    0.4429    1.8072 H   0  0  0  0  0  0  0  0  0  0  0  0
   -1.4488    0.7742    1.0302 H   0  0  0  0  0  0  0  0  0  0  0  0
   -1.2003   -0.7411    1.9192 H   0  0  0  0  0  0  0  0  0  0  0  0
   -0.5411    1.0083   -1.2966 H   0  0  0  0  0  0  0  0  0  0  0  0
    0.3717   -0.3234   -2.0214 H   0  0  0  0  0  0  0  0  0  0  0  0
    2.1380    0.2207   -0.7566 H   0  0  0  0  0  0  0  0  0  0  0  0
  1  2  1  0
  1  6  1  0
  1  7  1  0
  1  8  1  0
  2  3  2  0
  2  4  1  0
  4  5  1  0
  4  9  1  0
  4 10  1  0
  5 11  1  0
M  END
$$$$

     RDKit          3D

 12 12  0  0  0  0  0  0  0  0999 V2000
    0.4682   -1.7899   -0.9300 O   0  0  0  0  0  0  0  0  0  0  0  0
    0.5070   -0.3516   -0.9292 C   0  0  0  0  0  0  0  0  0  0  0  0
    1.8893    0.0295   -0.5958 C   0  0  0  0  0  0  0  0  0  0  0  0
    3.0266    0.2666   -0.7846 N   0  0  0  0  0  0  0  0  0  0  0  0
   -0.4790    0.2834    0.0065 C   0  0  0  0  0  0  0  0  0  0  0  0
   -1.5295    1.0225   -0.4529 N   0  0  0  0  0  0  0  0  0  0  0  0
   -2.0619    1.5968    0.7077 O   0  0  0  0  0  0  0  0  0  0  0  0
   -1.3751    1.1363    1.8722 N   0  0  0  0  0  0  0  0  0  0  0  0
   -0.5647    0.2251    1.3917 C   0  0  0  0  0  0  0  0  0  0  0  0
   -0.3298   -2.0902   -0.4346 H   0  0  0  0  0  0  0  0  0  0  0  0
    0.3396    0.0068   -1.9286 H   0  0  0  0  0  0  0  0  0  0  0  0
    0.1094   -0.3353    2.0776 H   0  0  0  0  0  0  0  0  0  0  0  0
  1  2  1  0
  1 10  1  0
  2  3  1  0
  2  5  1  0
  2 11  1  0
  3  4  3  0
  5  6  2  0
  5  9  1  0
  6  7  1  0
  7  8  1  0
  8  9  2  0
  9 12  1  0
M  END
$$$$

     RDKit          3D

 16 17  0  0  0  0  0  0  0  0999 V2000
    1.8329   -0.3119   -2.9700 O   0  0  0  0  0  0  0  0  0  0  0  0
    1.1996   -0.2449   -1.9443 C   0  0  0  0  0  0  0  0  0  0  0  0
    0.3090   -1.1732   -1.0830 C   0  0  0  0  0  0  0  0  0  0  0  0
    0.1913    0.0660   -0.2369 C   0  0  0  0  0  0  0  0  0  0  0  0
   -1.2142    0.5462    0.0927 C   0  0  0  0  0  0  0  0  0  0  0  0
   -0.6677    0.9173    1.4914 C   0  0  0  0  0  0  0  0  0  0  0  0
    0.4913   -0.0769    1.2469 C   0  0  0  0  0  0  0  0  0  0  0  0
    1.0496    0.8204   -1.1064 O   0  0  0  0  0  0  0  0  0  0  0  0
   -0.5961   -1.5097   -1.5909 H   0  0  0  0  0  0  0  0  0  0  0  0
    0.8483   -2.0178   -0.6515 H   0  0  0  0  0  0  0  0  0  0  0  0
   -1.9755   -0.2420    0.1127 H   0  0  0  0  0  0  0  0  0  0  0  0
   -1.5854    1.3877   -0.4981 H   0  0  0  0  0  0  0  0  0  0  0  0
   -0.3400    1.9596    1.5697 H   0  0  0  0  0  0  0  0  0  0  0  0
   -1.3248    0.6851    2.3327 H   0  0  0  0  0  0  0  0  0  0  0  0
    0.3077   -1.0752    1.6587 H   0  0  0  0  0  0  0  0  0  0  0  0
    1.4741    0.2693    1.5764 H   0  0  0  0  0  0  0  0  0  0  0  0
  1  2  2  0
  3  9  1  0
  5 12  1  0
  2  3  1  0
  2  8  1  0
  3  4  1  0
  3 10  1  0
  5 11  1  0
  4  8  1  0
  4  5  1  0
  5  6  1  0
  4  7  1  0
  6 14  1  0
  6  7  1  0
  6 13  1  0
  7 16  1  0
  7 15  1  0
M  END
$$$$

     RDKit          3D

 17 18  0  0  0  0  0  0  0  0999 V2000
    1.3470    3.4629    0.2018 C   0  0  0  0  0  0  0  0  0  0  0  0
    1.2581    2.3203   -0.1522 C   0  0  0  0  0  0  0  0  0  0  0  0
    1.1818    0.9099   -0.5533 C   0  0  0  0  0  0  0  0  0  0  0  0
   -0.0575    0.6389   -1.3060 O   0  0  0  0  0  0  0  0  0  0  0  0
   -1.0192   -0.0629   -0.4601 C   0  0  0  0  0  0  0  0  0  0  0  0
   -1.3345   -1.5796   -0.6194 C   0  0  0  0  0  0  0  0  0  0  0  0
   -0.8419   -1.8455    0.8625 C   0  0  0  0  0  0  0  0  0  0  0  0
   -0.1275   -0.5589    0.6380 C   0  0  0  0  0  0  0  0  0  0  0  0
    1.0881   -0.0146    0.6523 C   0  0  0  0  0  0  0  0  0  0  0  0
    1.4165    4.4589    0.5731 H   0  0  0  0  0  0  0  0  0  0  0  0
    2.0159    0.6075   -1.2035 H   0  0  0  0  0  0  0  0  0  0  0  0
   -1.8910    0.5721   -0.2491 H   0  0  0  0  0  0  0  0  0  0  0  0
   -0.7404   -2.0985   -1.3939 H   0  0  0  0  0  0  0  0  0  0  0  0
   -2.4077   -1.8181   -0.7863 H   0  0  0  0  0  0  0  0  0  0  0  0
   -1.5986   -1.8302    1.6643 H   0  0  0  0  0  0  0  0  0  0  0  0
   -0.2358   -2.7601    0.9495 H   0  0  0  0  0  0  0  0  0  0  0  0
    1.9466   -0.4020    1.1823 H   0  0  0  0  0  0  0  0  0  0  0  0
  3 11  1  0
  9 17  1  0
  3  9  1  0
  2  3  1  0
  3  4  1  0
  8  9  2  0
  1  2  3  0
  1 10  1  0
  5  8  1  0
  7  8  1  0
  4  5  1  0
  5 12  1  0
  5  6  1  0
  7 15  1  0
  7 16  1  0
  6  7  1  0
  6 14  1  0
  6 13  1  0
M  END
$$$$

     RDKit          3D

 20 21  0  0  0  0  0  0  0  0999 V2000
    1.4398   -1.0923    1.7592 C   0  0  0  0  0  0  0  0  0  0  0  0
    0.8713   -0.3794    0.5438 C   0  0  0  0  0  0  0  0  0  0  0  0
    0.4110    1.0514    0.8721 C   0  0  0  0  0  0  0  0  0  0  0  0
   -0.6817    1.3840   -0.1538 C   0  0  0  0  0  0  0  0  0  0  0  0
   -0.1336    2.0093   -1.3551 N   0  0  0  0  0  0  0  0  0  0  0  0
   -1.2971    2.5436   -2.0460 O   0  0  0  0  0  0  0  0  0  0  0  0
   -1.3028    0.0438   -0.4731 C   0  0  0  0  0  0  0  0  0  0  0  0
   -0.7241   -0.9502   -1.4534 C   0  0  0  0  0  0  0  0  0  0  0  0
   -0.3769   -1.0374    0.0064 C   0  0  0  0  0  0  0  0  0  0  0  0
    1.7448   -2.1114    1.4999 H   0  0  0  0  0  0  0  0  0  0  0  0
    0.7013   -1.1678    2.5655 H   0  0  0  0  0  0  0  0  0  0  0  0
    2.3151   -0.5615    2.1473 H   0  0  0  0  0  0  0  0  0  0  0  0
    1.6385   -0.3484   -0.2414 H   0  0  0  0  0  0  0  0  0  0  0  0
    1.2438    1.7652    0.8644 H   0  0  0  0  0  0  0  0  0  0  0  0
   -0.0369    1.0988    1.8738 H   0  0  0  0  0  0  0  0  0  0  0  0
   -1.3337    1.9320   -2.8090 H   0  0  0  0  0  0  0  0  0  0  0  0
   -2.3487   -0.0130   -0.2085 H   0  0  0  0  0  0  0  0  0  0  0  0
    0.0456   -0.6248   -2.1443 H   0  0  0  0  0  0  0  0  0  0  0  0
   -1.3878   -1.7064   -1.8605 H   0  0  0  0  0  0  0  0  0  0  0  0
   -0.7878   -1.8355    0.6128 H   0  0  0  0  0  0  0  0  0  0  0  0
  6 16  1  0
  5  6  1  0
  3 14  1  0
  3 15  1  0
  4  5  1  0
  3  4  1  0
  2  3  1  0
  1 11  1  0
  4  7  1  0
  1 10  1  0
  1  2  1  0
  1 12  1  0
  2 13  1  0
  2  9  1  0
  8 19  1  0
  7  8  1  0
  7  9  1  0
  7 17  1  0
  8  9  1  0
  8 18  1  0
  9 20  1  0
M  END
$$$$

     RDKit          3D

 25 25  0  0  0  0  0  0  0  0999 V2000
    1.4352    0.9702    2.0824 C   0  0  0  0  0  0  0  0  0  0  0  0
    0.7775    1.6675    0.9109 C   0  0  0  0  0  0  0  0  0  0  0  0
    0.2047    0.5258    0.0654 C   0  0  0  0  0  0  0  0  0  0  0  0
   -0.9766    0.5123   -0.6101 C   0  0  0  0  0  0  0  0  0  0  0  0
   -1.9890    1.6457   -0.6633 C   0  0  0  0  0  0  0  0  0  0  0  0
   -1.4958   -0.8951   -1.0282 C   0  0  0  0  0  0  0  0  0  0  0  0
   -0.5110   -2.0437   -1.1235 C   0  0  0  0  0  0  0  0  0  0  0  0
    0.7249   -1.8550   -0.2215 C   0  0  0  0  0  0  0  0  0  0  0  0
    1.3052   -0.5130   -0.2508 C   0  0  0  0  0  0  0  0  0  0  0  0
    1.3511    1.5725    3.0309 H   0  0  0  0  0  0  0  0  0  0  0  0
    2.5417    0.9160    1.8779 H   0  0  0  0  0  0  0  0  0  0  0  0
    1.1054   -0.0426    2.3956 H   0  0  0  0  0  0  0  0  0  0  0  0
    1.5734    2.1804    0.2266 H   0  0  0  0  0  0  0  0  0  0  0  0
   -0.0310    2.3180    1.1931 H   0  0  0  0  0  0  0  0  0  0  0  0
   -2.7743    1.4804   -1.4036 H   0  0  0  0  0  0  0  0  0  0  0  0
   -2.4728    1.9136    0.3393 H   0  0  0  0  0  0  0  0  0  0  0  0
   -1.4024    2.5467   -0.9962 H   0  0  0  0  0  0  0  0  0  0  0  0
   -2.1944   -0.7894   -1.8555 H   0  0  0  0  0  0  0  0  0  0  0  0
   -2.1402   -1.2541   -0.0755 H   0  0  0  0  0  0  0  0  0  0  0  0
    0.0435   -2.4635   -2.0886 H   0  0  0  0  0  0  0  0  0  0  0  0
   -1.1891   -2.9411   -0.7870 H   0  0  0  0  0  0  0  0  0  0  0  0
    1.4952   -2.4243   -0.8083 H   0  0  0  0  0  0  0  0  0  0  0  0
    0.6565   -2.4542    0.7502 H   0  0  0  0  0  0  0  0  0  0  0  0
    2.2502   -0.4403    0.3040 H   0  0  0  0  0  0  0  0  0  0  0  0
    1.7117   -0.1328   -1.2643 H   0  0  0  0  0  0  0  0  0  0  0  0
  5 16  1  0
  5 15  1  0
  5 17  1  0
  4  5  1  0
  6 19  1  0
  6 18  1  0
  4  6  1  0
  6  7  1  0
  3  4  2  0
  1 11  1  0
  2 13  1  0
  2  3  1  0
  3  9  1  0
  7 20  1  0
  7 21  1  0
  7  8  1  0
  1  2  1  0
  2 14  1  0
  1 10  1  0
  1 12  1  0
  8 22  1  0
  8  9  1  0
  8 23  1  0
  9 24  1  0
  9 25  1  0
M  END
$$$$

     RDKit          3D

 14 15  0  0  0  0  0  0  0  0999 V2000
   -1.6573   -1.1474    1.8170 O   0  0  0  0  0  0  0  0  0  0  0  0
   -1.1615   -0.5375    0.8784 C   0  0  0  0  0  0  0  0  0  0  0  0
   -1.7521    0.5551    0.3093 O   0  0  0  0  0  0  0  0  0  0  0  0
   -0.9683    1.0268   -0.8047 C   0  0  0  0  0  0  0  0  0  0  0  0
    0.3240    0.2315   -0.8946 C   0  0  0  0  0  0  0  0  0  0  0  0
    1.4195    0.8344   -0.1602 O   0  0  0  0  0  0  0  0  0  0  0  0
    1.4374   -0.2859    0.7594 C   0  0  0  0  0  0  0  0  0  0  0  0
    0.1509   -0.8411    0.1603 C   0  0  0  0  0  0  0  0  0  0  0  0
   -1.5726    0.8871   -1.7075 H   0  0  0  0  0  0  0  0  0  0  0  0
   -0.7828    2.0975   -0.6755 H   0  0  0  0  0  0  0  0  0  0  0  0
    0.6353   -0.0920   -1.8919 H   0  0  0  0  0  0  0  0  0  0  0  0
    1.3789    0.0457    1.8008 H   0  0  0  0  0  0  0  0  0  0  0  0
    2.3280   -0.9064    0.6180 H   0  0  0  0  0  0  0  0  0  0  0  0
    0.2206   -1.8677   -0.2090 H   0  0  0  0  0  0  0  0  0  0  0  0
  8 14  1  0
  4  9  1  0
  5 11  1  0
  2  8  1  0
  5  8  1  0
  7  8  1  0
  1  2  2  0
  2  3  1  0
  4  5  1  0
  5  6  1  0
  3  4  1  0
  4 10  1  0
  7 12  1  0
  6  7  1  0
  7 13  1  0
M  END
$$$$

     RDKit          3D

 21 23  0  0  0  0  0  0  0  0999 V2000
    0.4463    1.2514   -2.6646 O   0  0  0  0  0  0  0  0  0  0  0  0
    0.8021    0.7300   -1.3980 C   0  0  0  0  0  0  0  0  0  0  0  0
    1.0959   -0.7393   -1.2870 C   0  0  0  0  0  0  0  0  0  0  0  0
   -0.0211   -1.0060    0.0203 C   0  0  0  0  0  0  0  0  0  0  0  0
    0.8577   -0.4704    1.1563 C   0  0  0  0  0  0  0  0  0  0  0  0
   -0.0361    0.8126    0.9996 C   0  0  0  0  0  0  0  0  0  0  0  0
   -1.5371    0.4216    1.3139 C   0  0  0  0  0  0  0  0  0  0  0  0
   -1.4242   -1.0287    0.8722 C   0  0  0  0  0  0  0  0  0  0  0  0
   -0.3196    0.4685   -0.4722 C   0  0  0  0  0  0  0  0  0  0  0  0
    1.3097    0.9892   -3.2365 H   0  0  0  0  0  0  0  0  0  0  0  0
    1.5122    1.4329   -0.8891 H   0  0  0  0  0  0  0  0  0  0  0  0
    1.0297   -1.3442   -2.1692 H   0  0  0  0  0  0  0  0  0  0  0  0
    2.1636   -0.7101   -1.0331 H   0  0  0  0  0  0  0  0  0  0  0  0
    2.0101   -0.6954    0.9470 H   0  0  0  0  0  0  0  0  0  0  0  0
    0.7120   -1.2045    1.9883 H   0  0  0  0  0  0  0  0  0  0  0  0
    0.2255    1.7934    1.2429 H   0  0  0  0  0  0  0  0  0  0  0  0
   -2.1859    1.0085    0.6729 H   0  0  0  0  0  0  0  0  0  0  0  0
   -1.8159    0.5675    2.3342 H   0  0  0  0  0  0  0  0  0  0  0  0
   -2.2855   -1.5521    0.4956 H   0  0  0  0  0  0  0  0  0  0  0  0
   -1.2510   -1.4751    2.0461 H   0  0  0  0  0  0  0  0  0  0  0  0
   -1.2883    0.7503   -0.9395 H   0  0  0  0  0  0  0  0  0  0  0  0
  2 11  1  0
  6 16  1  0
  9 21  1  0
  1  2  1  0
  1 10  1  0
  2  9  1  0
  2  3  1  0
  6  9  1  0
  4  9  1  0
  6  7  1  0
  5  6  1  0
  7 17  1  0
  7 18  1  0
  7  8  1  0
  5 14  1  0
  3 12  1  0
  4  5  1  0
  5 15  1  0
  3  4  1  0
  3 13  1  0
  4  8  1  0
  8 20  1  0
  8 19  1  0
M  END
$$$$

     RDKit          3D

 19 19  0  0  0  0  0  0  0  0999 V2000
    0.5649    0.5179    2.5157 C   0  0  0  0  0  0  0  0  0  0  0  0
    1.4815    0.5035    1.4225 O   0  0  0  0  0  0  0  0  0  0  0  0
    0.8774    0.8958    0.1868 C   0  0  0  0  0  0  0  0  0  0  0  0
    0.0814   -0.2451   -0.4620 C   0  0  0  0  0  0  0  0  0  0  0  0
   -0.5241    0.1613   -1.8321 C   0  0  0  0  0  0  0  0  0  0  0  0
   -1.8579   -0.2310   -1.2135 C   0  0  0  0  0  0  0  0  0  0  0  0
   -1.2696   -0.3332    0.1023 O   0  0  0  0  0  0  0  0  0  0  0  0
    0.8685   -1.6171   -0.4637 C   0  0  0  0  0  0  0  0  0  0  0  0
    0.7824   -2.5644    0.3204 O   0  0  0  0  0  0  0  0  0  0  0  0
   -0.2339   -0.2109    2.3677 H   0  0  0  0  0  0  0  0  0  0  0  0
    0.1495    1.5232    2.6607 H   0  0  0  0  0  0  0  0  0  0  0  0
    1.1100    0.2403    3.4184 H   0  0  0  0  0  0  0  0  0  0  0  0
    0.2636    1.7948    0.3330 H   0  0  0  0  0  0  0  0  0  0  0  0
    1.7093    1.1712   -0.4743 H   0  0  0  0  0  0  0  0  0  0  0  0
   -0.2240   -0.4552   -2.6859 H   0  0  0  0  0  0  0  0  0  0  0  0
   -0.4396    1.2184   -2.0932 H   0  0  0  0  0  0  0  0  0  0  0  0
   -2.6411    0.5318   -1.2546 H   0  0  0  0  0  0  0  0  0  0  0  0
   -2.2668   -1.1937   -1.5354 H   0  0  0  0  0  0  0  0  0  0  0  0
    1.5687   -1.7077   -1.3128 H   0  0  0  0  0  0  0  0  0  0  0  0
  6 18  1  0
  6 17  1  0
  6  7  1  0
  4  7  1  0
  5  6  1  0
  1 11  1  0
  3 14  1  0
  1 10  1  0
  1  2  1  0
  2  3  1  0
  4  5  1  0
  3  4  1  0
  4  8  1  0
  1 12  1  0
  5 16  1  0
  5 15  1  0
  3 13  1  0
  8 19  1  0
  8  9  2  0
M  END
$$$$

     RDKit          3D

 17 16  0  0  0  0  0  0  0  0999 V2000
    0.9869   -1.5134   -1.9471 C   0  0  0  0  0  0  0  0  0  0  0  0
   -0.3333   -0.9340   -1.7432 N   0  0  0  0  0  0  0  0  0  0  0  0
   -0.1682    0.4549   -1.3387 C   0  0  0  0  0  0  0  0  0  0  0  0
   -1.2515    0.9359   -0.5526 O   0  0  0  0  0  0  0  0  0  0  0  0
   -1.4682    0.1965    0.6402 C   0  0  0  0  0  0  0  0  0  0  0  0
   -0.2582    0.0202    1.5663 C   0  0  0  0  0  0  0  0  0  0  0  0
    0.5099    1.2661    1.9238 C   0  0  0  0  0  0  0  0  0  0  0  0
    0.0516   -1.0791    2.0314 O   0  0  0  0  0  0  0  0  0  0  0  0
    0.9045   -2.6051   -2.1074 H   0  0  0  0  0  0  0  0  0  0  0  0
    1.6208   -1.3660   -1.0682 H   0  0  0  0  0  0  0  0  0  0  0  0
    1.4684   -1.0726   -2.8171 H   0  0  0  0  0  0  0  0  0  0  0  0
   -0.0821    1.1019   -2.2308 H   0  0  0  0  0  0  0  0  0  0  0  0
   -2.2641    0.7107    1.2039 H   0  0  0  0  0  0  0  0  0  0  0  0
   -1.8611   -0.7971    0.3771 H   0  0  0  0  0  0  0  0  0  0  0  0
   -0.1550    2.0398    2.3271 H   0  0  0  0  0  0  0  0  0  0  0  0
    1.2467    1.0068    2.6962 H   0  0  0  0  0  0  0  0  0  0  0  0
    1.0529    1.6344    1.0389 H   0  0  0  0  0  0  0  0  0  0  0  0
  7 15  1  0
  5 13  1  0
  5 14  1  0
  7 16  1  0
  7 17  1  0
  6  7  1  0
  5  6  1  0
  4  5  1  0
  6  8  2  0
  3 12  1  0
  3  4  1  0
  2  3  1  0
  1 10  1  0
  1  2  1  0
  1  9  1  0
  1 11  1  0
M  END
$$$$
