@<TRIPOS>MOLECULE
generated_molecule
16 16 0 0 0
SMALL
NO_CHARGES

@<TRIPOS>ATOM
     1  C1         0.4270      2.3181     -0.1606  C       1  LIG       0.0000
     2  C2         0.9487      0.8308     -0.5234  C       1  LIG       0.0000
     3  C3         0.0647     -0.3632     -0.1662  C       1  LIG       0.0000
     4  C4        -0.1593     -1.6959     -0.4918  C       1  LIG       0.0000
     5  O5         0.0893     -2.5621     -1.4267  O       1  LIG       0.0000
     6  N6        -0.9305     -2.3238      0.4265  N       1  LIG       0.0000
     7  C7        -1.2061     -1.3484      1.3198  C       1  LIG       0.0000
     8  N8        -0.6410     -0.1394      0.9656  N       1  LIG       0.0000
     9  H9        -0.1837      2.7928     -0.9769  H       1  LIG       0.0000
    10  H10       -0.2715      2.2330      0.6943  H       1  LIG       0.0000
    11  H11        1.3267      2.9111      0.0907  H       1  LIG       0.0000
    12  H12        1.8214      0.7388      0.0938  H       1  LIG       0.0000
    13  H13        1.1278      0.7955     -1.5860  H       1  LIG       0.0000
    14  H14        0.0027     -3.5007     -1.7455  H       1  LIG       0.0000
    15  H15       -1.7327     -1.4892      2.1861  H       1  LIG       0.0000
    16  H16       -0.6836      0.8026      1.3003  H       1  LIG       0.0000
@<TRIPOS>BOND
    1     5    14  1
    2     4     5  1
    3     4     6  ar
    4     3     4  ar
    5     2    12  1
    6     6     7  ar
    7     1    10  1
    8     2     3  1
    9     3     8  ar
   10     1     2  1
   11     2    13  1
   12     1     9  1
   13     1    11  1
   14     7     8  ar
   15     7    15  1
   16     8    16  1
