@<TRIPOS>MOLECULE
generated_molecule
20 20 0 0 0
SMALL
NO_CHARGES

@<TRIPOS>ATOM
     1  C1        -2.4661      1.6603     -0.4255  C       1  LIG       0.0000
     2  C2        -0.8982      1.3487     -0.4888  C       1  LIG       0.0000
     3  C3        -0.0596      0.0932     -0.0080  C       1  LIG       0.0000
     4  C4         0.8263      0.4765      1.1954  C       1  LIG       0.0000
     5  O5         1.9100     -0.3432      0.9392  O       1  LIG       0.0000
     6  C6         2.0403     -1.2701     -0.0558  C       1  LIG       0.0000
     7  C7         0.8507     -2.2915     -0.0228  C       1  LIG       0.0000
     8  O8        -0.0068     -1.2597      0.3097  O       1  LIG       0.0000
     9  H9        -2.6381      2.7018     -0.1971  H       1  LIG       0.0000
    10  H10       -2.9750      1.0220      0.3395  H       1  LIG       0.0000
    11  H11       -2.8442      1.3535     -1.4064  H       1  LIG       0.0000
    12  H12       -0.1973      1.9958     -0.0143  H       1  LIG       0.0000
    13  H13       -1.3148      1.3836     -1.4790  H       1  LIG       0.0000
    14  H14       -0.1434     -0.2641     -1.0093  H       1  LIG       0.0000
    15  H15        0.8533      1.5539      1.1718  H       1  LIG       0.0000
    16  H16        0.7277      0.1669      2.1944  H       1  LIG       0.0000
    17  H17        2.1425     -0.3842     -0.6149  H       1  LIG       0.0000
    18  H18        2.6683     -2.1114     -0.2173  H       1  LIG       0.0000
    19  H19        1.6292     -3.0275     -0.1337  H       1  LIG       0.0000
    20  H20       -0.1048     -2.8045     -0.0772  H       1  LIG       0.0000
@<TRIPOS>BOND
    1     6    17  1
    2     7    20  1
    3     7    19  1
    4     6     7  1
    5     7     8  1
    6     6    18  1
    7     5     6  1
    8     4     5  1
    9     3     8  1
   10     3    14  1
   11     3     4  1
   12     2     3  1
   13     4    16  1
   14     4    15  1
   15     1    10  1
   16     1     2  1
   17     2    13  1
   18     2    12  1
   19     1     9  1
   20     1    11  1
