@<TRIPOS>MOLECULE
generated_molecule
17 19 0 0 0
SMALL
NO_CHARGES

@<TRIPOS>ATOM
     1  O1        -2.2125     -0.4804      2.2092  O       1  LIG       0.0000
     2  C2        -1.2887      0.1151      1.6712  C       1  LIG       0.0000
     3  N3        -0.5225      1.0975      2.3440  N       1  LIG       0.0000
     4  C4        -0.1446      1.4946      1.0041  C       1  LIG       0.0000
     5  C5        -0.6178      0.1545      0.3164  C       1  LIG       0.0000
     6  C6        -0.5527     -0.1447     -1.1957  C       1  LIG       0.0000
     7  C7         0.6683     -0.6191     -2.0598  C       1  LIG       0.0000
     8  C8         1.0926     -1.3686     -0.7902  C       1  LIG       0.0000
     9  N9        -0.1995     -1.2034     -0.1193  N       1  LIG       0.0000
    10  H10        0.0072      0.9412      3.1594  H       1  LIG       0.0000
    11  H11        0.7078      1.6609      0.3398  H       1  LIG       0.0000
    12  H12       -0.5123      2.4075      1.4156  H       1  LIG       0.0000
    13  H13       -1.3910      0.2306     -1.7756  H       1  LIG       0.0000
    14  H14        1.2524     -1.3535     -2.6246  H       1  LIG       0.0000
    15  H15        0.5678      0.2539     -2.7255  H       1  LIG       0.0000
    16  H16        1.0082     -2.0221     -0.0038  H       1  LIG       0.0000
    17  H17        2.1374     -1.1641     -1.1653  H       1  LIG       0.0000
@<TRIPOS>BOND
    1     8    16  1
    2     8    17  1
    3     4    11  1
    4     8     9  1
    5     7     8  1
    6     5     9  1
    7     6     9  1
    8     3    10  1
    9     3     4  1
   10     2     3  1
   11     1     2  2
   12     4     5  1
   13     4    12  1
   14     2     5  1
   15     5     6  1
   16     6     7  1
   17     6    13  1
   18     7    14  1
   19     7    15  1
