@<TRIPOS>MOLECULE
generated_molecule
21 22 0 0 0
SMALL
NO_CHARGES

@<TRIPOS>ATOM
     1  C1         0.0174      1.0537      1.9405  C       1  LIG       0.0000
     2  C2         0.3293      0.3490      0.5994  C       1  LIG       0.0000
     3  C3         0.0009      1.6039     -0.3261  C       1  LIG       0.0000
     4  O4        -0.9860      2.3956      0.2146  O       1  LIG       0.0000
     5  C5         0.8011     -1.1715      0.5359  C       1  LIG       0.0000
     6  C6         0.4965     -2.3909     -0.3983  C       1  LIG       0.0000
     7  C7        -0.1537     -1.4543     -1.3729  C       1  LIG       0.0000
     8  O8        -1.1933     -0.6485     -1.7588  O       1  LIG       0.0000
     9  C9         0.5381     -0.3453     -0.6943  C       1  LIG       0.0000
    10  H10       -0.7241      0.4654      2.4706  H       1  LIG       0.0000
    11  H11       -0.3637      2.0237      1.6243  H       1  LIG       0.0000
    12  H12        0.9033      1.1680      2.5839  H       1  LIG       0.0000
    13  H13        0.8133      2.3029     -0.4179  H       1  LIG       0.0000
    14  H14       -0.3070      1.1352     -1.2322  H       1  LIG       0.0000
    15  H15       -1.5788      2.7261      0.8251  H       1  LIG       0.0000
    16  H16        1.4235     -1.4864      1.3863  H       1  LIG       0.0000
    17  H17        1.4318     -2.9588     -0.3557  H       1  LIG       0.0000
    18  H18       -0.2179     -3.2662     -0.4861  H       1  LIG       0.0000
    19  H19       -0.3683     -2.0823     -2.2501  H       1  LIG       0.0000
    20  H20       -1.8767      0.0299     -1.9521  H       1  LIG       0.0000
    21  H21        1.0145      0.5509     -0.9362  H       1  LIG       0.0000
@<TRIPOS>BOND
    1     4    15  1
    2     3     4  1
    3     1    11  1
    4     5    16  1
    5     3    13  1
    6     2     3  1
    7     3    14  1
    8     2     5  1
    9     5     6  1
   10     5     9  1
   11     6    18  1
   12     1     2  1
   13     1    10  1
   14     1    12  1
   15     2     9  1
   16     6    17  1
   17     6     7  1
   18     9    21  1
   19     7     9  1
   20     7    19  1
   21     7     8  1
   22     8    20  1
