@<TRIPOS>MOLECULE
generated_molecule
15 15 0 0 0
SMALL
NO_CHARGES

@<TRIPOS>ATOM
     1  C1        -0.8969      1.2998      0.8017  C       1  LIG       0.0000
     2  C2        -0.3032      0.4993     -0.3065  C       1  LIG       0.0000
     3  C3        -0.4356     -0.8449     -0.6407  C       1  LIG       0.0000
     4  N4        -1.2999     -1.5223     -1.5084  N       1  LIG       0.0000
     5  N5         0.7155     -1.4432     -0.3421  N       1  LIG       0.0000
     6  C6         1.4540     -0.3635      0.0396  C       1  LIG       0.0000
     7  O7         2.2397     -0.4320      1.0124  O       1  LIG       0.0000
     8  N8         0.9638      0.8858     -0.1384  N       1  LIG       0.0000
     9  H9        -1.0543      2.2759      0.4906  H       1  LIG       0.0000
    10  H10       -0.1611      1.3395      1.6737  H       1  LIG       0.0000
    11  H11       -1.7313      0.7305      1.1680  H       1  LIG       0.0000
    12  H12       -0.7961     -1.9413     -2.3310  H       1  LIG       0.0000
    13  H13       -2.2483     -1.5003     -1.3669  H       1  LIG       0.0000
    14  H14        2.2099     -0.7685      1.9169  H       1  LIG       0.0000
    15  H15        1.3439      1.7850     -0.4689  H       1  LIG       0.0000
@<TRIPOS>BOND
    1     4    13  1
    2     4    12  1
    3     3     4  1
    4     3     5  ar
    5     2     3  ar
    6     1    10  1
    7     5     6  ar
    8     1     2  1
    9     2     8  ar
   10     1    11  1
   11     1     9  1
   12     6     8  ar
   13     6     7  1
   14     7    14  1
   15     8    15  1
