@<TRIPOS>MOLECULE
generated_molecule
17 19 0 0 0
SMALL
NO_CHARGES

@<TRIPOS>ATOM
     1  C1         0.6078     -0.0414      2.3089  C       1  LIG       0.0000
     2  C2         0.2487     -0.0146      0.8490  C       1  LIG       0.0000
     3  C3        -1.0002     -0.7552      0.2589  C       1  LIG       0.0000
     4  C4        -0.6081     -0.5212     -1.2971  C       1  LIG       0.0000
     5  N5        -0.2887      0.6379     -2.2005  N       1  LIG       0.0000
     6  C6         0.2972      1.6408     -1.2925  C       1  LIG       0.0000
     7  O7         0.3082      2.8561     -1.3881  O       1  LIG       0.0000
     8  N8         0.8574      0.9775     -0.1031  N       1  LIG       0.0000
     9  C9         0.6834     -0.5101     -0.5101  C       1  LIG       0.0000
    10  H10       -0.3295      0.0371      2.8338  H       1  LIG       0.0000
    11  H11        1.1202     -0.9652      2.4206  H       1  LIG       0.0000
    12  H12        1.2712      0.7943      2.6029  H       1  LIG       0.0000
    13  H13       -1.9469     -0.2716      0.4936  H       1  LIG       0.0000
    14  H14       -0.8872     -1.7792      0.5530  H       1  LIG       0.0000
    15  H15       -1.2706     -1.1276     -1.9139  H       1  LIG       0.0000
    16  H16       -0.3611      0.4294     -3.1878  H       1  LIG       0.0000
    17  H17        1.2980     -1.3868     -0.4276  H       1  LIG       0.0000
@<TRIPOS>BOND
    1     3    13  1
    2     4    15  1
    3     3    14  1
    4     3     4  1
    5     2     3  1
    6     1    11  1
    7     4     9  1
    8     4     5  1
    9     2     9  1
   10     1     2  1
   11     2     8  1
   12     9    17  1
   13     8     9  1
   14     1    10  1
   15     1    12  1
   16     5    16  1
   17     5     6  1
   18     6     8  1
   19     6     7  2
