@<TRIPOS>MOLECULE
generated_molecule
14 16 0 0 0
SMALL
NO_CHARGES

@<TRIPOS>ATOM
     1  N1        -1.0105      3.3293      0.4263  N       1  LIG       0.0000
     2  C2        -0.8138      2.1591      0.3314  C       1  LIG       0.0000
     3  C3        -0.5156      0.7009      0.1334  C       1  LIG       0.0000
     4  C4        -0.4271     -0.1829     -1.1253  C       1  LIG       0.0000
     5  O5        -1.3896     -1.0526     -0.7329  O       1  LIG       0.0000
     6  C6        -0.7654     -0.8226      0.4526  C       1  LIG       0.0000
     7  C7         0.8186     -1.1668      0.8035  C       1  LIG       0.0000
     8  O8         1.6211     -0.0919      0.4028  O       1  LIG       0.0000
     9  C9         0.9053      0.6670     -0.4803  C       1  LIG       0.0000
    10  H10       -0.3790     -0.3669     -2.1182  H       1  LIG       0.0000
    11  H11       -1.5241     -1.3898      0.8457  H       1  LIG       0.0000
    12  H12        1.5330     -1.6975      0.2047  H       1  LIG       0.0000
    13  H13        0.5657     -1.5791      1.7614  H       1  LIG       0.0000
    14  H14        1.3815      1.4939     -0.9049  H       1  LIG       0.0000
@<TRIPOS>BOND
    1     7    13  1
    2     7     8  1
    3     8     9  1
    4     7    12  1
    5     6     7  1
    6     9    14  1
    7     3     9  1
    8     4     9  1
    9     3     6  1
   10     6    11  1
   11     5     6  1
   12     2     3  1
   13     3     4  1
   14     1     2  3
   15     4     5  1
   16     4    10  1
