@<TRIPOS>MOLECULE
generated_molecule
20 19 0 0 0
SMALL
NO_CHARGES

@<TRIPOS>ATOM
     1  C1         1.1336      0.4920     -1.5466  C       1  LIG       0.0000
     2  C2         0.6236     -0.1884     -0.1743  C       1  LIG       0.0000
     3  C3         0.2972     -1.0466      1.0973  C       1  LIG       0.0000
     4  C4         1.8187     -0.9071      0.6618  C       1  LIG       0.0000
     5  C5        -0.8803      0.1763     -0.0232  C       1  LIG       0.0000
     6  O6        -1.5734      1.1508      0.7046  O       1  LIG       0.0000
     7  C7        -2.1255      0.9050     -0.6342  C       1  LIG       0.0000
     8  C8        -3.1451      1.4563     -1.1228  C       1  LIG       0.0000
     9  H9         2.1017      1.2631     -1.6493  H       1  LIG       0.0000
    10  H10        0.2596      1.1479     -1.8181  H       1  LIG       0.0000
    11  H11        1.5023     -0.3110     -2.2941  H       1  LIG       0.0000
    12  H12        1.1755     -1.6012      1.4869  H       1  LIG       0.0000
    13  H13       -0.0655     -0.3882      1.8969  H       1  LIG       0.0000
    14  H14       -0.4854     -1.7536      0.8477  H       1  LIG       0.0000
    15  H15        2.1132     -1.8146      0.1422  H       1  LIG       0.0000
    16  H16        2.6880     -0.2808      0.9003  H       1  LIG       0.0000
    17  H17        1.4086     -1.1750      1.6733  H       1  LIG       0.0000
    18  H18       -0.8160     -0.8497      0.1664  H       1  LIG       0.0000
    19  H19       -1.9790      1.8036      1.2345  H       1  LIG       0.0000
    20  H20       -4.0518      1.9212     -1.5492  H       1  LIG       0.0000
@<TRIPOS>BOND
    1     5    18  1
    2     8    20  1
    3     7     8  3
    4     5     7  1
    5     5     6  1
    6     6    19  1
    7     2     5  1
    8     4    15  1
    9     1    10  1
   10     1     9  1
   11     1     2  1
   12     1    11  1
   13     2     4  1
   14     4    16  1
   15     4    17  1
   16     2     3  1
   17     3    14  1
   18     3    13  1
   19     3    12  1
