@<TRIPOS>MOLECULE
generated_molecule
17 16 0 0 0
SMALL
NO_CHARGES

@<TRIPOS>ATOM
     1  O1        -2.4971      1.3678     -0.9202  O       1  LIG       0.0000
     2  C2        -1.2138      1.4450     -1.4082  C       1  LIG       0.0000
     3  C3         0.0740      0.6693     -0.8321  C       1  LIG       0.0000
     4  C4        -0.0913     -0.1070      0.5758  C       1  LIG       0.0000
     5  O5         0.0826     -1.3920      0.1706  O       1  LIG       0.0000
     6  C6         0.7349     -0.4079      1.8473  C       1  LIG       0.0000
     7  O7         0.6386      0.0796      2.9860  O       1  LIG       0.0000
     8  C8         1.7495     -1.4035      1.4960  C       1  LIG       0.0000
     9  C9         2.5296     -2.2316      1.0698  C       1  LIG       0.0000
    10  H10       -3.2666      1.5218     -0.2838  H       1  LIG       0.0000
    11  H11       -1.6133      2.3774     -1.1060  H       1  LIG       0.0000
    12  H12       -0.8844      1.1807     -2.3798  H       1  LIG       0.0000
    13  H13        0.2865      0.1701     -1.7505  H       1  LIG       0.0000
    14  H14        0.9073      1.2232     -0.4374  H       1  LIG       0.0000
    15  H15       -0.9166      0.4750      0.8563  H       1  LIG       0.0000
    16  H16        0.2848     -1.9884     -0.5149  H       1  LIG       0.0000
    17  H17        3.1954     -2.9796      0.6310  H       1  LIG       0.0000
@<TRIPOS>BOND
    1     9    17  1
    2     8     9  3
    3     6     8  1
    4     3    14  1
    5     2    11  1
    6     4    15  1
    7     1    10  1
    8     1     2  1
    9     2     3  1
   10     3     4  1
   11     3    13  1
   12     4     6  1
   13     6     7  2
   14     2    12  1
   15     4     5  1
   16     5    16  1
