@<TRIPOS>MOLECULE
generated_molecule
19 21 0 0 0
SMALL
NO_CHARGES

@<TRIPOS>ATOM
     1  C1        -1.4719     -0.6132     -0.2315  C       1  LIG       0.0000
     2  C2        -0.1399     -0.0410     -0.0393  C       1  LIG       0.0000
     3  C3         1.2014     -0.4323      0.4712  C       1  LIG       0.0000
     4  C4         0.7173     -1.5378      0.4001  C       1  LIG       0.0000
     5  C5        -0.0603     -0.2620      0.0808  C       1  LIG       0.0000
     6  O6        -1.0370     -1.1531      0.3260  O       1  LIG       0.0000
     7  C7         1.2172      0.5709     -0.2303  C       1  LIG       0.0000
     8  C8         0.8427      2.0257     -0.2504  C       1  LIG       0.0000
     9  C9        -0.5156      1.3019     -0.1572  C       1  LIG       0.0000
    10  H10       -2.2422      0.1545     -0.3780  H       1  LIG       0.0000
    11  H11       -1.3726     -1.1873     -1.1089  H       1  LIG       0.0000
    12  H12       -1.6652     -1.1529      0.6625  H       1  LIG       0.0000
    13  H13        2.1789     -0.0810      0.7551  H       1  LIG       0.0000
    14  H14        0.9691     -2.6641      0.4886  H       1  LIG       0.0000
    15  H15       -1.5950     -1.9941      0.3447  H       1  LIG       0.0000
    16  H16        2.1799      0.1125     -0.3388  H       1  LIG       0.0000
    17  H17        1.8847      2.2077     -0.5347  H       1  LIG       0.0000
    18  H18        0.3057      2.9448     -0.0056  H       1  LIG       0.0000
    19  H19       -1.3972      1.8007     -0.2543  H       1  LIG       0.0000
@<TRIPOS>BOND
    1     3    13  1
    2     4    14  1
    3     3     4  2
    4     2     3  1
    5     4     5  1
    6     1    11  1
    7     1    10  1
    8     1     2  1
    9     1    12  1
   10     2     9  1
   11     2     7  1
   12     9    19  1
   13     5     9  1
   14     5     6  1
   15     5     7  1
   16     8     9  1
   17     6    15  1
   18     7    16  1
   19     7     8  1
   20     8    18  1
   21     8    17  1
