@<TRIPOS>MOLECULE
generated_molecule
20 20 0 0 0
SMALL
NO_CHARGES

@<TRIPOS>ATOM
     1  C1        -2.3016     -0.4331     -1.5553  C       1  LIG       0.0000
     2  O2        -1.3845     -1.1456     -0.7977  O       1  LIG       0.0000
     3  C3        -0.1184     -0.9333     -0.5024  C       1  LIG       0.0000
     4  C4         0.0770      0.2313      0.5302  C       1  LIG       0.0000
     5  C5         0.8749      1.3086      1.3430  C       1  LIG       0.0000
     6  N6         1.4531      0.1023      0.8394  N       1  LIG       0.0000
     7  C7         2.7489     -0.1789      0.5723  C       1  LIG       0.0000
     8  C8        -1.4309      0.3645      0.4912  C       1  LIG       0.0000
     9  O9        -2.2350      0.3269      1.4867  O       1  LIG       0.0000
    10  H10       -3.2849     -0.4904     -1.1024  H       1  LIG       0.0000
    11  H11       -2.2989     -0.7518     -2.6260  H       1  LIG       0.0000
    12  H12       -1.8667      0.6002     -1.5009  H       1  LIG       0.0000
    13  H13       -0.3475     -1.8972     -0.8651  H       1  LIG       0.0000
    14  H14        0.8532     -0.5521     -0.5834  H       1  LIG       0.0000
    15  H15        1.7227      1.4366      2.0061  H       1  LIG       0.0000
    16  H16        0.2740      2.1783      1.2307  H       1  LIG       0.0000
    17  H17        3.4095      0.7119      0.6440  H       1  LIG       0.0000
    18  H18        2.7301     -0.5182     -0.4399  H       1  LIG       0.0000
    19  H19        2.9278     -0.8726      1.3299  H       1  LIG       0.0000
    20  H20       -1.8027      0.5124     -0.5003  H       1  LIG       0.0000
@<TRIPOS>BOND
    1     8     9  2
    2     1    10  1
    3     1    12  1
    4     8    20  1
    5     4     8  1
    6     1    11  1
    7     1     2  1
    8     3    13  1
    9     3     4  1
   10     4     6  1
   11     4     5  1
   12     2     3  1
   13     3    14  1
   14     5     6  1
   15     6     7  1
   16     5    15  1
   17     5    16  1
   18     7    18  1
   19     7    19  1
   20     7    17  1
