@<TRIPOS>MOLECULE
generated_molecule
17 16 0 0 0
SMALL
NO_CHARGES

@<TRIPOS>ATOM
     1  C1        -1.5913     -2.0425      0.3313  C       1  LIG       0.0000
     2  N2        -0.3206     -1.9397     -0.2479  N       1  LIG       0.0000
     3  C3         0.8885     -1.4995      0.1954  C       1  LIG       0.0000
     4  O4         1.2914     -0.2522      0.2643  O       1  LIG       0.0000
     5  C5         1.5230      1.0871      0.4876  C       1  LIG       0.0000
     6  C6         0.2118      1.8328      0.2116  C       1  LIG       0.0000
     7  C7        -0.3160      1.5496     -1.1633  C       1  LIG       0.0000
     8  O8        -0.4151      2.5569      0.9987  O       1  LIG       0.0000
     9  H9        -1.5478     -2.9050      0.9891  H       1  LIG       0.0000
    10  H10       -1.7680     -1.1087      0.9341  H       1  LIG       0.0000
    11  H11       -2.3817     -2.1406     -0.4294  H       1  LIG       0.0000
    12  H12        1.5609     -2.2022      0.5030  H       1  LIG       0.0000
    13  H13        1.7592      1.4805      1.4777  H       1  LIG       0.0000
    14  H14        2.4024      1.1521     -0.1317  H       1  LIG       0.0000
    15  H15        0.2226      2.1531     -1.8957  H       1  LIG       0.0000
    16  H16       -1.4045      1.7628     -1.1657  H       1  LIG       0.0000
    17  H17       -0.1150      0.5157     -1.3594  H       1  LIG       0.0000
@<TRIPOS>BOND
    1     7    15  1
    2     5    13  1
    3     5    14  1
    4     7    16  1
    5     7    17  1
    6     6     7  1
    7     5     6  1
    8     4     5  1
    9     6     8  2
   10     3    12  1
   11     3     4  1
   12     2     3  1
   13     1    10  1
   14     1     2  1
   15     1     9  1
   16     1    11  1
