@<TRIPOS>MOLECULE
generated_molecule
8 8 0 0 0
SMALL
NO_CHARGES

@<TRIPOS>ATOM
     1  O1         0.0492     -1.5280      1.3231  O       1  LIG       0.0000
     2  C2         0.0447     -0.5671      0.4683  C       1  LIG       0.0000
     3  N3        -0.1834      0.7567      0.7476  N       1  LIG       0.0000
     4  N4        -0.2086      1.4992     -0.4267  N       1  LIG       0.0000
     5  N5         0.0123      0.6476     -1.4394  N       1  LIG       0.0000
     6  N6         0.1689     -0.6106     -0.8728  N       1  LIG       0.0000
     7  H7        -0.2780      1.2058      1.6543  H       1  LIG       0.0000
     8  H8         0.3949     -1.4035     -1.4544  H       1  LIG       0.0000
@<TRIPOS>BOND
    1     1     2  2
    2     2     3  ar
    3     2     6  ar
    4     3     4  ar
    5     3     7  1
    6     4     5  ar
    7     5     6  ar
    8     6     8  1
