@<TRIPOS>MOLECULE
generated_molecule
18 18 0 0 0
SMALL
NO_CHARGES

@<TRIPOS>ATOM
     1  C1         0.2141     -0.4160     -0.1368  C       1  LIG       0.0000
     2  C2         0.3771      0.7727      0.7559  C       1  LIG       0.0000
     3  O3         1.6666      0.8454      1.1343  O       1  LIG       0.0000
     4  C4        -0.7889      1.3798     -0.1030  C       1  LIG       0.0000
     5  O5        -0.9978      1.3921     -1.4861  O       1  LIG       0.0000
     6  C6        -0.9507      0.0839     -0.9981  C       1  LIG       0.0000
     7  C7         0.1316     -0.9452     -0.5604  C       1  LIG       0.0000
     8  C8        -0.3924     -1.2752      0.8151  C       1  LIG       0.0000
     9  N9        -0.7148     -1.6440      1.8517  N       1  LIG       0.0000
    10  H10       -0.7314     -1.0029     -0.2659  H       1  LIG       0.0000
    11  H11       -0.0041     -0.0553     -1.0062  H       1  LIG       0.0000
    12  H12        1.1046     -1.0175      0.1691  H       1  LIG       0.0000
    13  H13        0.1785      1.2863      1.6283  H       1  LIG       0.0000
    14  H14        2.6616      0.9992      1.4189  H       1  LIG       0.0000
    15  H15       -1.4362      2.2073      0.1978  H       1  LIG       0.0000
    16  H16       -1.8538     -0.1930     -1.5168  H       1  LIG       0.0000
    17  H17        1.0973     -0.5982     -0.7704  H       1  LIG       0.0000
    18  H18        0.4387     -1.8194     -1.1272  H       1  LIG       0.0000
@<TRIPOS>BOND
    1     1    11  1
    2     8     9  3
    3     5     6  1
    4     4     5  1
    5     7    17  1
    6     7     8  1
    7     2    13  1
    8     1    10  1
    9     1     2  1
   10     1    12  1
   11     6     7  1
   12     7    18  1
   13     2     4  1
   14     2     3  1
   15     4     6  1
   16     6    16  1
   17     4    15  1
   18     3    14  1
