@<TRIPOS>MOLECULE
generated_molecule
17 18 0 0 0
SMALL
NO_CHARGES

@<TRIPOS>ATOM
     1  C1        -1.5059      2.3832     -1.3813  C       1  LIG       0.0000
     2  C2        -1.3459      1.1093     -0.5488  C       1  LIG       0.0000
     3  C3        -1.1753      0.1408      0.0897  C       1  LIG       0.0000
     4  C4        -0.7890     -1.1212      0.8558  C       1  LIG       0.0000
     5  O5        -0.2863     -2.3601      0.4161  O       1  LIG       0.0000
     6  C6         0.9949     -2.0589     -0.0746  C       1  LIG       0.0000
     7  C7         1.9674     -0.8301     -0.0684  C       1  LIG       0.0000
     8  C8         0.6942     -0.8023      0.7717  C       1  LIG       0.0000
     9  O9         0.6460      0.1205      1.7361  O       1  LIG       0.0000
    10  H10       -2.4707      2.4522     -1.9669  H       1  LIG       0.0000
    11  H11       -1.4586      3.2860     -0.7233  H       1  LIG       0.0000
    12  H12       -0.6499      2.2719     -2.0224  H       1  LIG       0.0000
    13  H13       -1.4028     -1.3995      1.6804  H       1  LIG       0.0000
    14  H14        1.4188     -2.8002     -0.7249  H       1  LIG       0.0000
    15  H15        1.9965     -0.4136     -1.0645  H       1  LIG       0.0000
    16  H16        2.8249     -0.7402      0.5714  H       1  LIG       0.0000
    17  H17        0.5418      0.7622      2.4539  H       1  LIG       0.0000
@<TRIPOS>BOND
    1     9    17  1
    2     8     9  1
    3     1    10  1
    4     4    13  1
    5     1    11  1
    6     4     8  1
    7     7     8  1
    8     6     8  1
    9     1     2  1
   10     1    12  1
   11     2     3  3
   12     3     4  1
   13     4     5  1
   14     7    15  1
   15     6     7  1
   16     7    16  1
   17     5     6  1
   18     6    14  1
