@<TRIPOS>MOLECULE
generated_molecule
22 23 0 0 0
SMALL
NO_CHARGES

@<TRIPOS>ATOM
     1  C1         0.8643      0.2715      0.3337  C       1  LIG       0.0000
     2  C2         0.0725     -0.7721     -0.4856  C       1  LIG       0.0000
     3  C3         0.1292     -2.2276      0.0200  C       1  LIG       0.0000
     4  C4        -0.3559     -0.9338     -1.9484  C       1  LIG       0.0000
     5  N5        -1.0121      0.1736     -1.1745  N       1  LIG       0.0000
     6  C6        -0.8493      0.6746      0.2368  C       1  LIG       0.0000
     7  C7        -0.8191      2.2231      0.5276  C       1  LIG       0.0000
     8  O8         0.4964      2.0918      0.8886  O       1  LIG       0.0000
     9  C9         0.6156      0.7290      0.9260  C       1  LIG       0.0000
    10  H10        0.1858      0.9995      0.7003  H       1  LIG       0.0000
    11  H11        1.4310      1.0110     -0.2674  H       1  LIG       0.0000
    12  H12        1.4210     -0.3335      0.9724  H       1  LIG       0.0000
    13  H13       -0.8983     -2.5605      0.2296  H       1  LIG       0.0000
    14  H14        0.7393     -2.2272      0.8913  H       1  LIG       0.0000
    15  H15        0.5003     -2.8422     -0.7962  H       1  LIG       0.0000
    16  H16       -1.0762     -1.6892     -2.1964  H       1  LIG       0.0000
    17  H17        0.4702     -0.7453     -2.6206  H       1  LIG       0.0000
    18  H18       -1.6749      0.0334      0.4576  H       1  LIG       0.0000
    19  H19       -1.8249      2.2588      0.9789  H       1  LIG       0.0000
    20  H20       -0.5497      3.0961      0.0410  H       1  LIG       0.0000
    21  H21        0.5419     -0.2943      1.3446  H       1  LIG       0.0000
    22  H22        1.5928      1.0636      0.9406  H       1  LIG       0.0000
@<TRIPOS>BOND
    1     3    13  1
    2     1    11  1
    3     4    16  1
    4     3    14  1
    5     2     3  1
    6     3    15  1
    7     1    10  1
    8     1     2  1
    9     1    12  1
   10     4    17  1
   11     2     4  1
   12     4     5  1
   13     2     5  1
   14     5     6  1
   15     6    18  1
   16     6     9  1
   17     6     7  1
   18     9    21  1
   19     9    22  1
   20     8     9  1
   21     7    20  1
   22     7    19  1
   23     7     8  1
