@<TRIPOS>MOLECULE
generated_molecule
17 17 0 0 0
SMALL
NO_CHARGES

@<TRIPOS>ATOM
     1  C1         1.8254      1.2770      1.8533  C       1  LIG       0.0000
     2  C2         0.4515      1.2589      0.9155  C       1  LIG       0.0000
     3  O3         0.1672      2.3896      1.3056  O       1  LIG       0.0000
     4  C4        -0.4377      0.3589      0.0085  C       1  LIG       0.0000
     5  C5        -1.7617      0.3515      0.4239  C       1  LIG       0.0000
     6  O6        -2.3487     -0.8809      0.1274  O       1  LIG       0.0000
     7  C7        -1.4793     -1.6315     -0.5524  C       1  LIG       0.0000
     8  C8        -0.3566     -0.7880     -0.7720  C       1  LIG       0.0000
     9  C9         0.2746     -1.1447     -2.1342  C       1  LIG       0.0000
    10  H10        1.7569      0.5814      2.6910  H       1  LIG       0.0000
    11  H11        1.9566      2.3672      2.3067  H       1  LIG       0.0000
    12  H12        2.7298      1.0629      1.2637  H       1  LIG       0.0000
    13  H13       -2.2944      1.1664      0.7611  H       1  LIG       0.0000
    14  H14       -1.5896     -2.6792     -0.7444  H       1  LIG       0.0000
    15  H15        1.3167     -1.2431     -2.0748  H       1  LIG       0.0000
    16  H16        0.0273     -0.3559     -2.9054  H       1  LIG       0.0000
    17  H17       -0.2381     -2.0908     -2.4736  H       1  LIG       0.0000
@<TRIPOS>BOND
    1     1    11  1
    2     9    15  1
    3     1    10  1
    4     2     3  2
    5     1     2  1
    6     1    12  1
    7     2     4  1
    8     8     9  1
    9     9    17  1
   10     9    16  1
   11     4     8  ar
   12     4     5  ar
   13     7     8  ar
   14     5    13  1
   15     5     6  ar
   16     6     7  ar
   17     7    14  1
