@<TRIPOS>MOLECULE
generated_molecule
11 11 0 0 0
SMALL
NO_CHARGES

@<TRIPOS>ATOM
     1  O1         0.1773      0.5998     -1.9902  O       1  LIG       0.0000
     2  C2         0.8373      0.1282     -1.0093  C       1  LIG       0.0000
     3  C3         0.3188     -0.3985      0.1502  C       1  LIG       0.0000
     4  O4        -0.8125     -0.2527      0.6247  O       1  LIG       0.0000
     5  C5        -1.8522      0.1670      1.4592  C       1  LIG       0.0000
     6  O6        -3.0637      0.3733      1.1038  O       1  LIG       0.0000
     7  O7         1.3866     -0.9555      0.8446  O       1  LIG       0.0000
     8  N8         2.5776     -0.7592      0.1426  N       1  LIG       0.0000
     9  N9         2.2094     -0.0591     -1.0082  N       1  LIG       0.0000
    10  H10       -0.2546      0.8428     -2.8184  H       1  LIG       0.0000
    11  H11       -1.5238      0.3139      2.5010  H       1  LIG       0.0000
@<TRIPOS>BOND
    1     1     2  1
    2     1    10  1
    3     2     3  ar
    4     2     9  ar
    5     3     4  1
    6     3     7  ar
    7     4     5  1
    8     5     6  2
    9     5    11  1
   10     7     8  ar
   11     8     9  ar
