@<TRIPOS>MOLECULE
generated_molecule
20 21 0 0 0
SMALL
NO_CHARGES

@<TRIPOS>ATOM
     1  C1         1.8446     -1.5120      0.0558  C       1  LIG       0.0000
     2  C2         1.3380     -0.1810      0.6090  C       1  LIG       0.0000
     3  C3         1.0994      1.2811      0.0624  C       1  LIG       0.0000
     4  C4        -0.3254      1.4610     -0.1626  C       1  LIG       0.0000
     5  N5        -1.5338      1.9483     -0.0182  N       1  LIG       0.0000
     6  O6        -2.7484      1.8520     -0.5043  O       1  LIG       0.0000
     7  C7        -0.6040      0.0781     -0.5990  C       1  LIG       0.0000
     8  C8        -1.5843     -0.8296      0.0887  C       1  LIG       0.0000
     9  C9        -0.1108     -0.7024      0.6516  C       1  LIG       0.0000
    10  H10        2.9428     -1.6928      0.2572  H       1  LIG       0.0000
    11  H11        1.2812     -2.3046      0.5220  H       1  LIG       0.0000
    12  H12        1.6900     -1.4616     -1.0109  H       1  LIG       0.0000
    13  H13        2.0881      0.0947      1.3875  H       1  LIG       0.0000
    14  H14        1.2482      1.7153     -0.9108  H       1  LIG       0.0000
    15  H15        1.7781      1.7951      0.7714  H       1  LIG       0.0000
    16  H16       -3.4027      1.7076     -1.1823  H       1  LIG       0.0000
    17  H17       -0.5942      0.1285     -1.6531  H       1  LIG       0.0000
    18  H18       -2.4639     -0.1799      0.2370  H       1  LIG       0.0000
    19  H19       -1.7606     -1.8654     -0.1401  H       1  LIG       0.0000
    20  H20       -0.1822     -1.3324      1.5386  H       1  LIG       0.0000
@<TRIPOS>BOND
    1     6    16  1
    2     5     6  1
    3     3    14  1
    4     3    15  1
    5     4     5  1
    6     3     4  1
    7     2     3  1
    8     1    11  1
    9     4     7  1
   10     1    10  1
   11     1     2  1
   12     1    12  1
   13     2    13  1
   14     2     9  1
   15     8    19  1
   16     7     8  1
   17     7     9  1
   18     7    17  1
   19     8     9  1
   20     8    18  1
   21     9    20  1
