@<TRIPOS>MOLECULE
generated_molecule
19 20 0 0 0
SMALL
NO_CHARGES

@<TRIPOS>ATOM
     1  C1        -1.6030      2.2620      1.3799  C       1  LIG       0.0000
     2  O2        -0.9338      1.4651      0.4402  O       1  LIG       0.0000
     3  C3        -0.4556      0.3878     -0.1689  C       1  LIG       0.0000
     4  C4         0.4878      0.3007     -1.3419  C       1  LIG       0.0000
     5  C5         0.9418     -1.1016     -1.7402  C       1  LIG       0.0000
     6  N6         0.8469     -1.6462     -0.4706  N       1  LIG       0.0000
     7  C7         0.8629     -2.1222      0.8334  C       1  LIG       0.0000
     8  C8         0.4138     -0.6398      0.5710  C       1  LIG       0.0000
     9  H9        -0.8088      2.5632      2.0634  H       1  LIG       0.0000
    10  H10       -2.3668      1.6011      1.8169  H       1  LIG       0.0000
    11  H11       -2.1321      3.1547      0.9805  H       1  LIG       0.0000
    12  H12       -1.5304      0.3269     -0.3129  H       1  LIG       0.0000
    13  H13        0.8511      0.2456     -2.3873  H       1  LIG       0.0000
    14  H14        0.4839      1.3302     -0.9333  H       1  LIG       0.0000
    15  H15        0.9286     -2.1572     -1.9497  H       1  LIG       0.0000
    16  H16        1.3620     -0.6506     -2.6805  H       1  LIG       0.0000
    17  H17        1.5196     -2.9413      0.5431  H       1  LIG       0.0000
    18  H18        0.4214     -2.1947      1.8276  H       1  LIG       0.0000
    19  H19        0.7107     -0.1839      1.5292  H       1  LIG       0.0000
@<TRIPOS>BOND
    1     5    15  1
    2     8    19  1
    3     3    12  1
    4     5     6  1
    5     6     8  1
    6     6     7  1
    7     5    16  1
    8     4     5  1
    9     3     8  1
   10     7     8  1
   11     4    13  1
   12     3     4  1
   13     2     3  1
   14     4    14  1
   15     1    10  1
   16     7    17  1
   17     7    18  1
   18     1     2  1
   19     1     9  1
   20     1    11  1
