@<TRIPOS>MOLECULE
generated_molecule
23 23 0 0 0
SMALL
NO_CHARGES

@<TRIPOS>ATOM
     1  C1        -0.0596     -1.0148     -1.9551  C       1  LIG       0.0000
     2  C2        -0.4226     -1.1504     -0.4383  C       1  LIG       0.0000
     3  O3        -1.4058     -0.7847      0.4093  O       1  LIG       0.0000
     4  C4        -1.5708      0.2055      1.3411  C       1  LIG       0.0000
     5  C5        -0.4183      0.8223      0.5200  C       1  LIG       0.0000
     6  C6        -0.1008      2.2936      0.8571  C       1  LIG       0.0000
     7  O7        -0.9727      0.9636     -0.7089  O       1  LIG       0.0000
     8  C8         0.6013     -0.3462      0.3849  C       1  LIG       0.0000
     9  C9         2.0448     -1.0251      0.2335  C       1  LIG       0.0000
    10  H10       -0.2236      0.0056     -2.3176  H       1  LIG       0.0000
    11  H11       -0.7629     -1.7013     -2.5373  H       1  LIG       0.0000
    12  H12        0.9594     -1.3092     -2.0964  H       1  LIG       0.0000
    13  H13       -0.8142     -2.1362     -0.5486  H       1  LIG       0.0000
    14  H14       -1.2587      0.4537      2.3398  H       1  LIG       0.0000
    15  H15       -2.6589      0.2160      1.3190  H       1  LIG       0.0000
    16  H16        0.7317      2.5789      0.2421  H       1  LIG       0.0000
    17  H17       -1.0086      2.9437      0.6229  H       1  LIG       0.0000
    18  H18        0.1199      2.4172      1.9141  H       1  LIG       0.0000
    19  H19       -1.2854      0.4174     -1.4553  H       1  LIG       0.0000
    20  H20        1.3354     -0.3182      1.1922  H       1  LIG       0.0000
    21  H21        2.3333     -1.0834     -0.8014  H       1  LIG       0.0000
    22  H22        2.0154     -2.0286      0.6926  H       1  LIG       0.0000
    23  H23        2.8215     -0.4193      0.7903  H       1  LIG       0.0000
@<TRIPOS>BOND
    1     4    15  1
    2     1    11  1
    3     3     4  1
    4     2     3  1
    5     4    14  1
    6     4     5  1
    7     1    10  1
    8     1     2  1
    9     1    12  1
   10     7    19  1
   11     2    13  1
   12     2     8  1
   13     5     7  1
   14     5     8  1
   15     5     6  1
   16     6    16  1
   17     8    20  1
   18     8     9  1
   19     6    18  1
   20     6    17  1
   21     9    21  1
   22     9    22  1
   23     9    23  1
