@<TRIPOS>MOLECULE
generated_molecule
19 21 0 0 0
SMALL
NO_CHARGES

@<TRIPOS>ATOM
     1  O1         1.7521     -1.0307      1.0008  O       1  LIG       0.0000
     2  C2         0.7352     -0.4092      0.3915  C       1  LIG       0.0000
     3  C3         0.9610     -0.0651     -1.0806  C       1  LIG       0.0000
     4  C4         0.4942      1.3104     -0.4391  C       1  LIG       0.0000
     5  C5         0.1508      0.8147      0.9940  C       1  LIG       0.0000
     6  C6        -1.4005      0.8671      0.9916  C       1  LIG       0.0000
     7  C7        -1.7960     -0.4609      0.4009  C       1  LIG       0.0000
     8  C8        -0.5589     -0.9201     -0.0806  C       1  LIG       0.0000
     9  C9         0.0838     -1.3315     -1.3717  C       1  LIG       0.0000
    10  H10        2.4903     -1.5608      1.3625  H       1  LIG       0.0000
    11  H11        1.7016     -0.1566     -1.8801  H       1  LIG       0.0000
    12  H12       -0.1189      2.0459      0.0195  H       1  LIG       0.0000
    13  H13        1.0258      1.7148     -1.2904  H       1  LIG       0.0000
    14  H14        0.7438      1.0062      1.8809  H       1  LIG       0.0000
    15  H15       -1.6329      1.7569      0.4121  H       1  LIG       0.0000
    16  H16       -1.9979      0.8885      1.9085  H       1  LIG       0.0000
    17  H17       -2.7357     -0.9518      0.3092  H       1  LIG       0.0000
    18  H18       -0.7902     -1.9782     -1.4685  H       1  LIG       0.0000
    19  H19        0.8922     -1.5394     -2.0607  H       1  LIG       0.0000
@<TRIPOS>BOND
    1     5    14  1
    2     4    13  1
    3     4     5  1
    4     5     6  1
    5     2     5  1
    6     6    16  1
    7     6    15  1
    8     4    12  1
    9     3     4  1
   10     6     7  1
   11     1     2  1
   12     1    10  1
   13     2     3  1
   14     2     8  1
   15     3    11  1
   16     3     9  1
   17     7     8  1
   18     7    17  1
   19     8     9  1
   20     9    19  1
   21     9    18  1
