@<TRIPOS>MOLECULE
generated_molecule
20 21 0 0 0
SMALL
NO_CHARGES

@<TRIPOS>ATOM
     1  C1         1.2193      2.6498     -1.3030  C       1  LIG       0.0000
     2  C2        -0.0551      1.8648     -0.7121  C       1  LIG       0.0000
     3  N3         0.0074      0.9030      0.4889  N       1  LIG       0.0000
     4  C4        -0.9028     -0.2297     -0.0206  C       1  LIG       0.0000
     5  C5        -0.1459     -0.3828      1.2724  C       1  LIG       0.0000
     6  C6         0.4143     -1.8097      1.1152  C       1  LIG       0.0000
     7  O7         0.3858     -2.4786      2.3164  O       1  LIG       0.0000
     8  C8        -0.3164     -1.6472     -0.1943  C       1  LIG       0.0000
     9  O9        -1.5291     -1.9227     -0.7157  O       1  LIG       0.0000
    10  H10        1.9444      1.9341     -1.6310  H       1  LIG       0.0000
    11  H11        0.9287      3.3378     -2.1839  H       1  LIG       0.0000
    12  H12        1.6323      3.3126     -0.4939  H       1  LIG       0.0000
    13  H13       -0.5847      2.8470     -0.6365  H       1  LIG       0.0000
    14  H14       -0.5946      1.1441     -1.3024  H       1  LIG       0.0000
    15  H15       -1.8335      0.0687     -0.4303  H       1  LIG       0.0000
    16  H16       -0.4476     -0.5681      2.2980  H       1  LIG       0.0000
    17  H17        1.3946     -2.3140      1.0080  H       1  LIG       0.0000
    18  H18        0.4235     -2.9233      3.2407  H       1  LIG       0.0000
    19  H19        0.3912     -2.0611     -0.9190  H       1  LIG       0.0000
    20  H20       -2.3318     -1.7246     -1.1968  H       1  LIG       0.0000
@<TRIPOS>BOND
    1     9    20  1
    2     8     9  1
    3     8    19  1
    4     4     8  1
    5     6     8  1
    6     4    15  1
    7     1    11  1
    8     3     4  1
    9     4     5  1
   10     7    18  1
   11     6     7  1
   12     6    17  1
   13     5     6  1
   14     1    10  1
   15     1    12  1
   16     1     2  1
   17     2    13  1
   18     3     5  1
   19     2     3  1
   20     5    16  1
   21     2    14  1
