@<TRIPOS>MOLECULE
generated_molecule
20 21 0 0 0
SMALL
NO_CHARGES

@<TRIPOS>ATOM
     1  C1         0.2245      1.9033     -1.2106  C       1  LIG       0.0000
     2  C2         0.1940      0.7259     -0.1519  C       1  LIG       0.0000
     3  N3         0.3922      1.7909      0.9253  N       1  LIG       0.0000
     4  C4         1.0429      0.5288      1.1280  C       1  LIG       0.0000
     5  C5         0.8156     -0.9226      0.8275  C       1  LIG       0.0000
     6  O6         0.3875     -1.2998      2.0781  O       1  LIG       0.0000
     7  C7        -0.1942     -0.7028     -0.3109  C       1  LIG       0.0000
     8  C8        -1.6797     -1.1435     -0.6619  C       1  LIG       0.0000
     9  O9        -0.0071     -1.8969     -0.9453  O       1  LIG       0.0000
    10  H10       -0.2114      1.5250     -2.0916  H       1  LIG       0.0000
    11  H11        1.2758      2.2715     -1.3245  H       1  LIG       0.0000
    12  H12       -0.3421      2.8104     -0.8496  H       1  LIG       0.0000
    13  H13        0.4959      2.7613      0.7971  H       1  LIG       0.0000
    14  H14        1.7557      0.8439      1.8864  H       1  LIG       0.0000
    15  H15        1.6492     -1.5187      0.5038  H       1  LIG       0.0000
    16  H16       -0.0016     -0.9773      2.8619  H       1  LIG       0.0000
    17  H17       -1.8604     -1.2807     -1.7645  H       1  LIG       0.0000
    18  H18       -1.9026     -2.1626     -0.1952  H       1  LIG       0.0000
    19  H19       -2.3446     -0.3985     -0.2694  H       1  LIG       0.0000
    20  H20        0.3104     -2.8575     -1.2328  H       1  LIG       0.0000
@<TRIPOS>BOND
    1     8    18  1
    2     8    19  1
    3     9    20  1
    4     8    17  1
    5     7     8  1
    6     7     9  1
    7     5     7  1
    8     2     7  1
    9     1    11  1
   10     1    10  1
   11     5    15  1
   12     5     6  1
   13     6    16  1
   14     4     5  1
   15     1     2  1
   16     2     3  1
   17     2     4  1
   18     1    12  1
   19     3     4  1
   20     3    13  1
   21     4    14  1
