@<TRIPOS>MOLECULE
generated_molecule
17 18 0 0 0
SMALL
NO_CHARGES

@<TRIPOS>ATOM
     1  O1        -0.3815     -1.7577     -1.8649  O       1  LIG       0.0000
     2  C2         0.2976     -0.6376     -1.9672  C       1  LIG       0.0000
     3  O3         0.1308     -0.2303     -3.1334  O       1  LIG       0.0000
     4  C4         0.9917     -0.1539     -0.6904  C       1  LIG       0.0000
     5  N5         0.8824     -0.3774      0.7371  N       1  LIG       0.0000
     6  H6         1.6816     -0.7876      1.2056  H       1  LIG       0.0000
     7  H7        -1.1242     -2.3492     -1.7177  H       1  LIG       0.0000
     8  C8        -0.0912     -0.0380      1.8078  C       1  LIG       0.0000
     9  C9        -1.0162      0.7630      0.9186  C       1  LIG       0.0000
    10  N10       -0.9917      1.2063     -0.5485  N       1  LIG       0.0000
    11  C11        0.2595      0.8256      0.0974  C       1  LIG       0.0000
    12  H12        2.0267     -0.0799     -1.0488  H       1  LIG       0.0000
    13  H13       -0.9664      0.0590      2.4664  H       1  LIG       0.0000
    14  H14        0.7322     -0.3824      2.4501  H       1  LIG       0.0000
    15  H15       -1.9938      0.9547      1.3381  H       1  LIG       0.0000
    16  H16       -1.6055      1.9436     -0.6336  H       1  LIG       0.0000
    17  H17        1.1680      1.0419      0.5833  H       1  LIG       0.0000
@<TRIPOS>BOND
    1     5     6  1
    2     4    12  1
    3     4     5  1
    4     5     8  1
    5     2     3  2
    6     8    13  1
    7     2     4  1
    8     4    11  1
    9     1     2  1
   10     1     7  1
   11     8    14  1
   12     8     9  1
   13    11    17  1
   14     9    11  1
   15    10    11  1
   16     9    15  1
   17     9    10  1
   18    10    16  1
