@<TRIPOS>MOLECULE
generated_molecule
17 17 0 0 0
SMALL
NO_CHARGES

@<TRIPOS>ATOM
     1  C1        -1.9207     -1.1371     -0.2628  C       1  LIG       0.0000
     2  C2        -0.7300     -0.4439      0.4535  C       1  LIG       0.0000
     3  N3         0.4888     -1.2159      0.3063  N       1  LIG       0.0000
     4  C4         1.2913     -0.2565     -0.4098  C       1  LIG       0.0000
     5  C5         2.1007      0.8764     -1.0689  C       1  LIG       0.0000
     6  N6         2.7126      1.7138     -1.5856  N       1  LIG       0.0000
     7  C7         0.1283      0.6677     -0.1229  C       1  LIG       0.0000
     8  N8         0.3288      1.7206      0.9271  N       1  LIG       0.0000
     9  H9        -2.8420     -0.9390      0.3191  H       1  LIG       0.0000
    10  H10       -1.7261     -2.2008     -0.3271  H       1  LIG       0.0000
    11  H11       -2.0084     -0.7151     -1.2693  H       1  LIG       0.0000
    12  H12       -1.1743     -0.1199      1.4171  H       1  LIG       0.0000
    13  H13        0.8100     -2.0158      0.7752  H       1  LIG       0.0000
    14  H14        1.9442     -1.1423     -0.5944  H       1  LIG       0.0000
    15  H15       -0.2508      1.1499     -1.0219  H       1  LIG       0.0000
    16  H16        0.7067      2.6160      0.6165  H       1  LIG       0.0000
    17  H17        0.1407      1.4418      1.8480  H       1  LIG       0.0000
@<TRIPOS>BOND
    1     3    13  1
    2     1    10  1
    3     2     3  1
    4     3     4  1
    5     1     9  1
    6     1     2  1
    7     1    11  1
    8     2    12  1
    9     2     7  1
   10     4    14  1
   11     4     5  1
   12     4     7  1
   13     5     6  3
   14     7     8  1
   15     7    15  1
   16     8    17  1
   17     8    16  1
