@<TRIPOS>MOLECULE
generated_molecule
20 22 0 0 0
SMALL
NO_CHARGES

@<TRIPOS>ATOM
     1  C1         1.0905     -1.2961      1.5031  C       1  LIG       0.0000
     2  O2        -0.0151     -0.5083      1.6871  O       1  LIG       0.0000
     3  C3        -0.7129      0.3741      0.9724  C       1  LIG       0.0000
     4  C4         0.5798      1.0945      0.8370  C       1  LIG       0.0000
     5  C5         1.8180      0.5446      0.0909  C       1  LIG       0.0000
     6  N6         0.5451      0.2420     -0.4604  N       1  LIG       0.0000
     7  C7        -0.8512      0.2017     -0.5516  C       1  LIG       0.0000
     8  C8        -1.2509     -0.5969     -1.8235  C       1  LIG       0.0000
     9  C9        -1.9464      0.6773     -1.6203  C       1  LIG       0.0000
    10  H10        0.8247     -1.7117      0.5375  H       1  LIG       0.0000
    11  H11        2.0175     -0.6712      1.4008  H       1  LIG       0.0000
    12  H12        1.1598     -1.9987      2.3213  H       1  LIG       0.0000
    13  H13       -1.4548      0.7486      1.6225  H       1  LIG       0.0000
    14  H14        0.6721      1.9423      1.5457  H       1  LIG       0.0000
    15  H15        2.4316      0.3627      0.9696  H       1  LIG       0.0000
    16  H16        2.2508      0.5979     -0.8746  H       1  LIG       0.0000
    17  H17       -1.1719     -1.5964     -1.4592  H       1  LIG       0.0000
    18  H18       -1.2327     -0.5016     -2.9312  H       1  LIG       0.0000
    19  H19       -2.3007      0.6290     -2.6785  H       1  LIG       0.0000
    20  H20       -2.4533      1.4662     -1.0886  H       1  LIG       0.0000
@<TRIPOS>BOND
    1     9    20  1
    2     9    19  1
    3     7     9  1
    4     8     9  1
    5     3    13  1
    6     6     7  1
    7     7     8  1
    8     3     7  1
    9     4     6  1
   10     5     6  1
   11     8    17  1
   12     8    18  1
   13     3     4  1
   14     2     3  1
   15     4    14  1
   16     4     5  1
   17     1    11  1
   18     1     2  1
   19     5    15  1
   20     5    16  1
   21     1    10  1
   22     1    12  1
