@<TRIPOS>MOLECULE
generated_molecule
19 20 0 0 0
SMALL
NO_CHARGES

@<TRIPOS>ATOM
     1  C1        -1.0285     -1.0160      1.3467  C       1  LIG       0.0000
     2  C2        -0.5810      0.3619      0.8712  C       1  LIG       0.0000
     3  C3        -1.6597      0.6067     -0.1142  C       1  LIG       0.0000
     4  C4        -0.5499     -0.3505     -0.7102  C       1  LIG       0.0000
     5  C5         0.9546     -0.0532     -0.8477  C       1  LIG       0.0000
     6  C6         2.5140      0.2086     -0.9795  C       1  LIG       0.0000
     7  O7         3.1477      1.2878     -1.1377  O       1  LIG       0.0000
     8  C8         0.7479      0.9690      0.2467  C       1  LIG       0.0000
     9  O9         0.2900      1.2474      1.5824  O       1  LIG       0.0000
    10  H10       -2.1099     -0.9376      1.3449  H       1  LIG       0.0000
    11  H11       -0.6592     -1.7585      0.6407  H       1  LIG       0.0000
    12  H12       -0.6250     -1.2639      2.3305  H       1  LIG       0.0000
    13  H13       -2.6880      0.3118      0.0832  H       1  LIG       0.0000
    14  H14       -1.7704      1.6362     -0.3907  H       1  LIG       0.0000
    15  H15       -1.6443     -0.3746     -0.7508  H       1  LIG       0.0000
    16  H16        0.0778     -1.1734     -0.9100  H       1  LIG       0.0000
    17  H17        1.0572     -0.8192     -1.6135  H       1  LIG       0.0000
    18  H18        3.1728     -0.6857     -0.9795  H       1  LIG       0.0000
    19  H19        1.3539      1.8031     -0.0126  H       1  LIG       0.0000
@<TRIPOS>BOND
    1     3    14  1
    2     1    11  1
    3     4    16  1
    4     3    13  1
    5     2     3  1
    6     3     4  1
    7     1     2  1
    8     1    10  1
    9     1    12  1
   10     2     9  1
   11     8     9  1
   12     2     8  1
   13     4    15  1
   14     4     5  1
   15     6    18  1
   16     5     8  1
   17     8    19  1
   18     5     6  1
   19     5    17  1
   20     6     7  2
