@<TRIPOS>MOLECULE
generated_molecule
20 20 0 0 0
SMALL
NO_CHARGES

@<TRIPOS>ATOM
     1  C1        -1.0654      0.7849      2.1222  C       1  LIG       0.0000
     2  C2        -1.0519      0.8915      0.5823  C       1  LIG       0.0000
     3  C3        -0.0909     -0.1077     -0.0552  C       1  LIG       0.0000
     4  N4        -0.1140      1.0369     -0.9936  N       1  LIG       0.0000
     5  C5         1.2347      0.7294     -1.3612  C       1  LIG       0.0000
     6  C6         1.0686     -0.7365     -0.8989  C       1  LIG       0.0000
     7  N7         0.5933     -1.9786     -1.5376  N       1  LIG       0.0000
     8  C8        -0.0132     -1.2462      0.9368  C       1  LIG       0.0000
     9  N9         0.0464     -2.1030      1.6913  N       1  LIG       0.0000
    10  H10       -1.2703      1.7147      2.7477  H       1  LIG       0.0000
    11  H11       -0.0471      0.5459      2.1855  H       1  LIG       0.0000
    12  H12       -1.7777      0.0504      2.5034  H       1  LIG       0.0000
    13  H13       -0.8344      1.9746      0.5039  H       1  LIG       0.0000
    14  H14       -1.9884      0.7771      0.0198  H       1  LIG       0.0000
    15  H15       -1.0113      1.3287     -0.9708  H       1  LIG       0.0000
    16  H16        1.0269      1.6553     -1.8567  H       1  LIG       0.0000
    17  H17        2.2968      0.4855     -1.2630  H       1  LIG       0.0000
    18  H18        2.1076     -1.0871     -0.7895  H       1  LIG       0.0000
    19  H19        1.1910     -2.5030     -2.2462  H       1  LIG       0.0000
    20  H20       -0.3008     -2.2125     -1.3202  H       1  LIG       0.0000
@<TRIPOS>BOND
    1     8     9  3
    2     3     8  1
    3     5    16  1
    4     6    18  1
    5     5     6  1
    6     3     6  1
    7     6     7  1
    8     4     5  1
    9     5    17  1
   10     3     4  1
   11     2     3  1
   12     4    15  1
   13     1    11  1
   14     2    14  1
   15     7    19  1
   16     1     2  1
   17     2    13  1
   18     7    20  1
   19     1    10  1
   20     1    12  1
