@<TRIPOS>MOLECULE
generated_molecule
14 14 0 0 0
SMALL
NO_CHARGES

@<TRIPOS>ATOM
     1  O1        -1.8271     -1.8182     -1.4161  O       1  LIG       0.0000
     2  C2        -1.1383     -0.8540     -0.9897  C       1  LIG       0.0000
     3  N3        -0.6622      0.3884     -1.5664  N       1  LIG       0.0000
     4  C4         0.2767      1.2705     -0.8640  C       1  LIG       0.0000
     5  C5         1.1196      0.9645      0.1741  C       1  LIG       0.0000
     6  C6         1.1523     -0.3141      0.9304  C       1  LIG       0.0000
     7  O7         2.1751     -0.9740      1.0770  O       1  LIG       0.0000
     8  C8        -0.2235     -0.7240      1.4278  C       1  LIG       0.0000
     9  O9        -0.8028     -0.9246      0.2511  O       1  LIG       0.0000
    10  H10       -1.1807      0.5384     -2.3989  H       1  LIG       0.0000
    11  H11        0.3241      2.2975     -1.1579  H       1  LIG       0.0000
    12  H12        1.8230      1.7041      0.5440  H       1  LIG       0.0000
    13  H13       -1.2662     -0.9235      1.5680  H       1  LIG       0.0000
    14  H14        0.2300     -0.6309      2.4207  H       1  LIG       0.0000
@<TRIPOS>BOND
    1     8    13  1
    2     8    14  1
    3     6     8  1
    4     8     9  1
    5     6     7  2
    6     5     6  1
    7     5    12  1
    8     4     5  2
    9     3     4  1
   10     3    10  1
   11     2     3  1
   12     2     9  1
   13     4    11  1
   14     1     2  2
