@<TRIPOS>MOLECULE
generated_molecule
19 19 0 0 0
SMALL
NO_CHARGES

@<TRIPOS>ATOM
     1  C1         1.6192      1.5300     -1.1190  C       1  LIG       0.0000
     2  O2         1.0221      0.9644     -0.0414  O       1  LIG       0.0000
     3  C3         0.1613      0.8608      0.9835  C       1  LIG       0.0000
     4  C4        -0.5706     -0.5010      0.8379  C       1  LIG       0.0000
     5  C5        -1.2364     -0.5799     -0.5640  C       1  LIG       0.0000
     6  C6        -0.0870     -1.2975     -1.3228  C       1  LIG       0.0000
     7  O7         0.0679     -1.4458      0.0207  O       1  LIG       0.0000
     8  C8        -1.0092     -1.0033      2.2195  C       1  LIG       0.0000
     9  O9        -0.6948     -2.0930      2.7680  O       1  LIG       0.0000
    10  H10        2.4918      2.1232     -0.7853  H       1  LIG       0.0000
    11  H11        0.8650      2.2297     -1.5742  H       1  LIG       0.0000
    12  H12        1.8777      0.7125     -1.7801  H       1  LIG       0.0000
    13  H13        1.0227      1.2558      1.4924  H       1  LIG       0.0000
    14  H14       -0.7404      1.3666      1.2621  H       1  LIG       0.0000
    15  H15       -1.7384     -1.1660     -1.3300  H       1  LIG       0.0000
    16  H16       -1.7339      0.3088     -0.2206  H       1  LIG       0.0000
    17  H17       -0.1095     -2.2943     -1.7510  H       1  LIG       0.0000
    18  H18        0.4756     -0.5690     -1.9300  H       1  LIG       0.0000
    19  H19       -1.6831     -0.4021      2.8345  H       1  LIG       0.0000
@<TRIPOS>BOND
    1     6    18  1
    2     6    17  1
    3     6     7  1
    4     4     7  1
    5     5     6  1
    6     1    11  1
    7     3    14  1
    8     1    10  1
    9     1     2  1
   10     2     3  1
   11     4     5  1
   12     3     4  1
   13     4     8  1
   14     1    12  1
   15     5    16  1
   16     5    15  1
   17     3    13  1
   18     8    19  1
   19     8     9  2
