@<TRIPOS>MOLECULE
generated_molecule
21 22 0 0 0
SMALL
NO_CHARGES

@<TRIPOS>ATOM
     1  C1        -0.2211      0.4820     -2.7485  C       1  LIG       0.0000
     2  C2         0.4265      0.9186     -1.3898  C       1  LIG       0.0000
     3  C3         0.5666      2.1301     -0.5374  C       1  LIG       0.0000
     4  C4         0.7242      1.7987      0.7355  C       1  LIG       0.0000
     5  C5         0.7169      0.3256      1.0163  C       1  LIG       0.0000
     6  C6         0.0919     -1.0659      0.8064  C       1  LIG       0.0000
     7  C7        -1.0054     -1.9449      1.5523  C       1  LIG       0.0000
     8  O8        -0.5426     -2.3829      2.7229  O       1  LIG       0.0000
     9  C9        -0.1664      0.0995     -0.2346  C       1  LIG       0.0000
    10  H10       -1.2408      0.2019     -2.6545  H       1  LIG       0.0000
    11  H11       -0.2442      1.3189     -3.5236  H       1  LIG       0.0000
    12  H12        0.4498     -0.2998     -3.0824  H       1  LIG       0.0000
    13  H13        1.4147      1.0776     -1.8386  H       1  LIG       0.0000
    14  H14        0.5831      3.1885     -0.9125  H       1  LIG       0.0000
    15  H15        0.8240      2.6174      1.3861  H       1  LIG       0.0000
    16  H16        1.4108     -0.0247      1.7632  H       1  LIG       0.0000
    17  H17        0.7638     -1.9196      0.8214  H       1  LIG       0.0000
    18  H18       -1.3248     -2.1597      0.6296  H       1  LIG       0.0000
    19  H19       -1.8952     -1.9802      2.3191  H       1  LIG       0.0000
    20  H20       -0.1136     -2.5027      3.6128  H       1  LIG       0.0000
    21  H21       -1.2182      0.1217     -0.4437  H       1  LIG       0.0000
@<TRIPOS>BOND
    1     3    14  1
    2     1    11  1
    3     3     4  2
    4     2     3  1
    5     4    15  1
    6     1    10  1
    7     1     2  1
    8     1    12  1
    9     4     5  1
   10     2    13  1
   11     2     9  1
   12     7    18  1
   13     7    19  1
   14     7     8  1
   15     6     7  1
   16     5     9  1
   17     5     6  1
   18     5    16  1
   19     8    20  1
   20     6     9  1
   21     9    21  1
   22     6    17  1
