@<TRIPOS>MOLECULE
generated_molecule
19 20 0 0 0
SMALL
NO_CHARGES

@<TRIPOS>ATOM
     1  C1         0.5875      1.6564     -1.3887  C       1  LIG       0.0000
     2  C2         0.6077      0.1455     -0.9429  C       1  LIG       0.0000
     3  C3         0.0962      0.7316      0.3745  C       1  LIG       0.0000
     4  O4         0.5492      0.7332      1.6452  O       1  LIG       0.0000
     5  C5        -0.5832     -0.6264      0.3043  C       1  LIG       0.0000
     6  O6        -1.6573      0.0385     -0.1587  O       1  LIG       0.0000
     7  C7        -0.3443     -1.7235      1.3760  C       1  LIG       0.0000
     8  O8         0.2378     -2.3346      0.2774  O       1  LIG       0.0000
     9  C9         0.2080     -1.3757     -0.7177  C       1  LIG       0.0000
    10  H10        0.6528      1.7310     -2.5200  H       1  LIG       0.0000
    11  H11        1.4543      2.1547     -0.9398  H       1  LIG       0.0000
    12  H12       -0.3318      2.1189     -1.0612  H       1  LIG       0.0000
    13  H13        1.2435     -0.3197     -1.6978  H       1  LIG       0.0000
    14  H14       -0.4404      1.6479      0.4514  H       1  LIG       0.0000
    15  H15        0.5496      0.4121      2.6073  H       1  LIG       0.0000
    16  H16       -2.2150      0.8035     -0.0451  H       1  LIG       0.0000
    17  H17       -1.0208     -1.2026      2.0646  H       1  LIG       0.0000
    18  H18        0.2071     -2.4696      1.8677  H       1  LIG       0.0000
    19  H19        0.1992     -2.1213     -1.4967  H       1  LIG       0.0000
@<TRIPOS>BOND
    1     4    15  1
    2     3     4  1
    3     3    14  1
    4     1    11  1
    5     2     3  1
    6     3     5  1
    7     6    16  1
    8     1     2  1
    9     1    10  1
   10     1    12  1
   11     7    18  1
   12     2    13  1
   13     2     9  1
   14     5     6  1
   15     5     7  1
   16     5     9  1
   17     7    17  1
   18     7     8  1
   19     8     9  1
   20     9    19  1
