@<TRIPOS>MOLECULE
generated_molecule
12 12 0 0 0
SMALL
NO_CHARGES

@<TRIPOS>ATOM
     1  O1         0.8792      1.7965      0.1278  O       1  LIG       0.0000
     2  C2         0.7184      0.4230     -0.1409  C       1  LIG       0.0000
     3  C3         1.3482      1.4098     -1.1991  C       1  LIG       0.0000
     4  N4         1.8163      2.1631     -2.0321  N       1  LIG       0.0000
     5  C5        -0.3543     -0.5004      0.4182  C       1  LIG       0.0000
     6  N6        -0.6066     -0.7548      1.7647  N       1  LIG       0.0000
     7  O7        -1.5428     -1.7989      1.8288  O       1  LIG       0.0000
     8  N8        -1.8687     -2.1630      0.5091  N       1  LIG       0.0000
     9  C9        -1.1372     -1.3337     -0.3697  C       1  LIG       0.0000
    10  H10        0.9096      2.6411      0.5982  H       1  LIG       0.0000
    11  H11        1.0545     -0.5250     -0.0847  H       1  LIG       0.0000
    12  H12       -1.2167     -1.3579     -1.4203  H       1  LIG       0.0000
@<TRIPOS>BOND
    1     1     2  1
    2     1    10  1
    3     2     3  1
    4     2     5  1
    5     2    11  1
    6     3     4  3
    7     5     6  ar
    8     5     9  ar
    9     6     7  ar
   10     7     8  ar
   11     8     9  ar
   12     9    12  1
