@<TRIPOS>MOLECULE
generated_molecule
18 18 0 0 0
SMALL
NO_CHARGES

@<TRIPOS>ATOM
     1  C1         1.2280      0.3876     -1.4922  C       1  LIG       0.0000
     2  C2         0.5570     -0.1104     -0.1130  C       1  LIG       0.0000
     3  C3         0.5516     -0.3635     -1.7084  C       1  LIG       0.0000
     4  O4         0.6542     -1.0038      0.9510  O       1  LIG       0.0000
     5  C5        -0.2472     -1.0902      1.8915  C       1  LIG       0.0000
     6  C6        -0.1230      0.2677      1.2177  C       1  LIG       0.0000
     7  C7        -1.5222      0.8380      1.3779  C       1  LIG       0.0000
     8  C8        -2.6876      1.2681      1.5198  C       1  LIG       0.0000
     9  H9         0.7520      1.3087     -1.8185  H       1  LIG       0.0000
    10  H10        2.2979      0.5283     -1.3710  H       1  LIG       0.0000
    11  H11        1.0750     -0.3824     -2.2866  H       1  LIG       0.0000
    12  H12        1.5782     -0.5112     -2.0500  H       1  LIG       0.0000
    13  H13        0.2004      0.5047     -2.2864  H       1  LIG       0.0000
    14  H14       -0.0787     -1.2163     -1.9353  H       1  LIG       0.0000
    15  H15       -1.3271     -1.2464      2.0144  H       1  LIG       0.0000
    16  H16        0.2973     -1.6575      2.6693  H       1  LIG       0.0000
    17  H17        0.5248      0.8502      1.8590  H       1  LIG       0.0000
    18  H18       -3.7304      1.6285      1.5608  H       1  LIG       0.0000
@<TRIPOS>BOND
    1     3    12  1
    2     1    10  1
    3     2     4  1
    4     4     5  1
    5     3    13  1
    6     2     3  1
    7     3    14  1
    8     1     2  1
    9     1     9  1
   10     1    11  1
   11     2     6  1
   12     5    15  1
   13     5    16  1
   14     5     6  1
   15     6    17  1
   16     6     7  1
   17     7     8  3
   18     8    18  1
