@<TRIPOS>MOLECULE
generated_molecule
17 18 0 0 0
SMALL
NO_CHARGES

@<TRIPOS>ATOM
     1  O1        -2.7983     -1.9628      1.1347  O       1  LIG       0.0000
     2  C2        -1.7755     -1.5436      0.5875  C       1  LIG       0.0000
     3  C3        -1.4133     -1.0192     -0.7923  C       1  LIG       0.0000
     4  C4        -0.2340      0.0395     -0.5681  C       1  LIG       0.0000
     5  C5         0.5623      1.3981     -0.7272  C       1  LIG       0.0000
     6  C6         1.7610      1.3213      0.1463  C       1  LIG       0.0000
     7  C7         1.5432      0.4894      1.1125  C       1  LIG       0.0000
     8  C8         0.4034     -0.4837      0.7805  C       1  LIG       0.0000
     9  O9        -0.5889     -1.3620      1.1722  O       1  LIG       0.0000
    10  H10       -1.0956     -1.8573     -1.4149  H       1  LIG       0.0000
    11  H11       -2.3133     -0.5560     -1.2683  H       1  LIG       0.0000
    12  H12       -0.5963      0.3024     -1.5475  H       1  LIG       0.0000
    13  H13        1.3167      2.1172     -0.9288  H       1  LIG       0.0000
    14  H14       -0.4111      1.7355     -1.2234  H       1  LIG       0.0000
    15  H15        2.7046      1.8581     -0.0005  H       1  LIG       0.0000
    16  H16        2.1659      0.6074      2.0064  H       1  LIG       0.0000
    17  H17        0.7691     -1.0841      1.5308  H       1  LIG       0.0000
@<TRIPOS>BOND
    1     8    17  1
    2     1     2  2
    3     2     9  1
    4     8     9  1
    5     2     3  1
    6     4    12  1
    7     3    10  1
    8     4     8  1
    9     7     8  1
   10     3     4  1
   11     3    11  1
   12     4     5  1
   13     7    16  1
   14     6     7  2
   15     5    13  1
   16     5     6  1
   17     5    14  1
   18     6    15  1
