@<TRIPOS>MOLECULE
generated_molecule
13 14 0 0 0
SMALL
NO_CHARGES

@<TRIPOS>ATOM
     1  N1        -2.3537      0.9295     -0.4739  N       1  LIG       0.0000
     2  C2        -1.3747      0.0853     -0.1007  C       1  LIG       0.0000
     3  O3        -1.4686     -1.2654     -0.0747  O       1  LIG       0.0000
     4  C4        -0.0955     -1.5327     -0.1595  C       1  LIG       0.0000
     5  C5         0.8714     -1.1308      0.9680  C       1  LIG       0.0000
     6  C6         0.0681     -0.0211      0.1730  C       1  LIG       0.0000
     7  C7         0.8143      1.2449     -0.0495  C       1  LIG       0.0000
     8  C8         1.4373      2.2477     -0.2730  C       1  LIG       0.0000
     9  H9        -2.6857      1.1893     -1.3259  H       1  LIG       0.0000
    10  H10        0.3257     -2.2407     -0.8623  H       1  LIG       0.0000
    11  H11        0.9321     -0.6849      1.9556  H       1  LIG       0.0000
    12  H12        1.5048     -1.9905      0.7397  H       1  LIG       0.0000
    13  H13        2.0244      3.1694     -0.5169  H       1  LIG       0.0000
@<TRIPOS>BOND
    1     8    13  1
    2     7     8  3
    3     6     7  1
    4     4    10  1
    5     4     6  1
    6     2     6  1
    7     5     6  1
    8     3     4  1
    9     4     5  1
   10     1     2  1
   11     1     9  1
   12     2     3  1
   13     5    11  1
   14     5    12  1
