@<TRIPOS>MOLECULE
generated_molecule
18 19 0 0 0
SMALL
NO_CHARGES

@<TRIPOS>ATOM
     1  O1        -0.1616      2.6117      0.1493  O       1  LIG       0.0000
     2  N2        -0.2314      2.0551      1.3131  N       1  LIG       0.0000
     3  C3         0.4310      0.8935      1.3218  C       1  LIG       0.0000
     4  C4         1.3955      0.6789      0.1901  C       1  LIG       0.0000
     5  C5         0.3109     -0.4190     -0.0413  C       1  LIG       0.0000
     6  C6        -0.3737     -0.2775     -1.4104  C       1  LIG       0.0000
     7  C7        -0.8312     -1.3710     -0.5142  C       1  LIG       0.0000
     8  O8        -2.1240     -1.7346     -0.5925  O       1  LIG       0.0000
     9  C9         0.5824     -0.5596      1.4692  C       1  LIG       0.0000
    10  H10        0.3261      2.7012     -0.7096  H       1  LIG       0.0000
    11  H11        1.8694      0.6110     -0.7906  H       1  LIG       0.0000
    12  H12        1.9484      1.3222      0.8134  H       1  LIG       0.0000
    13  H13       -1.3381     -0.1409     -1.9027  H       1  LIG       0.0000
    14  H14        0.4830      0.0872     -1.8913  H       1  LIG       0.0000
    15  H15       -0.6791     -2.4036     -0.3345  H       1  LIG       0.0000
    16  H16       -3.0412     -2.1423     -0.7886  H       1  LIG       0.0000
    17  H17        1.5141     -0.5628      1.9852  H       1  LIG       0.0000
    18  H18       -0.0803     -1.3495      1.7334  H       1  LIG       0.0000
@<TRIPOS>BOND
    1     8    16  1
    2     7     8  1
    3     7    15  1
    4     5     7  1
    5     6     7  1
    6     4    12  1
    7     9    17  1
    8     5     6  1
    9     4     5  1
   10     5     9  1
   11     6    14  1
   12     6    13  1
   13     3     4  1
   14     4    11  1
   15     3     9  1
   16     9    18  1
   17     2     3  1
   18     1     2  1
   19     1    10  1
