@<TRIPOS>MOLECULE
generated_molecule
16 17 0 0 0
SMALL
NO_CHARGES

@<TRIPOS>ATOM
     1  O1        -0.0821     -1.4605     -2.7814  O       1  LIG       0.0000
     2  C2        -0.1865     -0.8688     -1.6716  C       1  LIG       0.0000
     3  C3        -0.8929     -1.2975     -0.3357  C       1  LIG       0.0000
     4  C4        -0.3447     -0.3929      0.8594  C       1  LIG       0.0000
     5  C5         1.0502      0.3361      0.9475  C       1  LIG       0.0000
     6  C6         0.7864      1.0643     -0.4090  C       1  LIG       0.0000
     7  C7        -0.4199      1.1353      0.5579  C       1  LIG       0.0000
     8  O8         0.3958      0.3179     -1.4933  O       1  LIG       0.0000
     9  H9        -1.7743     -1.3935      0.2834  H       1  LIG       0.0000
    10  H10       -0.8948     -2.1697     -0.9964  H       1  LIG       0.0000
    11  H11       -0.5527     -0.9688      1.7668  H       1  LIG       0.0000
    12  H12        1.0133      0.9925      1.8175  H       1  LIG       0.0000
    13  H13        1.9479     -0.2871      0.9249  H       1  LIG       0.0000
    14  H14        1.3819      1.7957     -0.9007  H       1  LIG       0.0000
    15  H15       -1.4992      1.1294      0.6053  H       1  LIG       0.0000
    16  H16        0.0715      2.0676      0.8254  H       1  LIG       0.0000
@<TRIPOS>BOND
    1     5    13  1
    2     5    12  1
    3     5     6  1
    4     4     5  1
    5     6    14  1
    6     4    11  1
    7     6     8  1
    8     6     7  1
    9     3     4  1
   10     4     7  1
   11     3     9  1
   12     7    15  1
   13     2     8  1
   14     2     3  1
   15     3    10  1
   16     7    16  1
   17     1     2  2
