@<TRIPOS>MOLECULE
generated_molecule
21 20 0 0 0
SMALL
NO_CHARGES

@<TRIPOS>ATOM
     1  C1         1.5298     -1.3589     -0.4475  C       1  LIG       0.0000
     2  C2         0.6588     -1.4708      0.8090  C       1  LIG       0.0000
     3  C3        -0.7397     -0.6468      0.6927  C       1  LIG       0.0000
     4  O4        -0.9318     -1.3531      1.8658  O       1  LIG       0.0000
     5  C5        -1.4433      0.7787      0.7322  C       1  LIG       0.0000
     6  C6        -0.6691      1.9972      0.0820  C       1  LIG       0.0000
     7  O7        -0.2880      1.6883     -1.1206  O       1  LIG       0.0000
     8  C8         0.4225      1.4691     -2.2206  C       1  LIG       0.0000
     9  O9         0.8794      0.3193     -2.4778  O       1  LIG       0.0000
    10  H10        2.4976     -0.8095     -0.2465  H       1  LIG       0.0000
    11  H11        1.8897     -2.3892     -0.8302  H       1  LIG       0.0000
    12  H12        0.9066     -0.8645     -1.1341  H       1  LIG       0.0000
    13  H13        1.6158     -2.1845      0.8928  H       1  LIG       0.0000
    14  H14        0.3434     -1.6416      1.7815  H       1  LIG       0.0000
    15  H15       -1.1264     -0.7253     -0.2933  H       1  LIG       0.0000
    16  H16       -1.0552     -2.1634      2.3201  H       1  LIG       0.0000
    17  H17       -1.6995      1.0144      1.7627  H       1  LIG       0.0000
    18  H18       -2.3608      0.8188      0.1255  H       1  LIG       0.0000
    19  H19       -1.2566      2.7222      0.7116  H       1  LIG       0.0000
    20  H20        0.2745      2.4087     -0.2168  H       1  LIG       0.0000
    21  H21        0.5523      2.3910     -2.7885  H       1  LIG       0.0000
@<TRIPOS>BOND
    1     6    19  1
    2     8     9  2
    3     8    21  1
    4     7     8  1
    5     6     7  1
    6     6    20  1
    7     5     6  1
    8     3    15  1
    9     5    18  1
   10     3     5  1
   11     5    17  1
   12     3     4  1
   13     4    16  1
   14     2     3  1
   15     1    11  1
   16     2    14  1
   17     1     2  1
   18     2    13  1
   19     1    10  1
   20     1    12  1
