@<TRIPOS>MOLECULE
generated_molecule
12 12 0 0 0
SMALL
NO_CHARGES

@<TRIPOS>ATOM
     1  F1         2.9911      0.5646      0.5851  F       1  LIG       0.0000
     2  C2         1.7073      0.2371      0.4242  C       1  LIG       0.0000
     3  C3         0.4715      0.9719      0.5075  C       1  LIG       0.0000
     4  C4        -0.6925      0.2800      0.0412  C       1  LIG       0.0000
     5  C5        -2.0027      0.7176     -0.3780  C       1  LIG       0.0000
     6  O6        -2.4233      0.4301     -1.5687  O       1  LIG       0.0000
     7  N7        -0.6305     -1.0157     -0.2746  N       1  LIG       0.0000
     8  C8         0.5393     -1.6569     -0.2394  C       1  LIG       0.0000
     9  N9         1.7004     -1.0474      0.0499  N       1  LIG       0.0000
    10  H10        0.4696      1.9480      0.9755  H       1  LIG       0.0000
    11  H11       -2.6619      1.2487      0.3039  H       1  LIG       0.0000
    12  H12        0.5315     -2.6781     -0.4266  H       1  LIG       0.0000
@<TRIPOS>BOND
    1     1     2  1
    2     2     3  ar
    3     2     9  ar
    4     3     4  ar
    5     3    10  1
    6     4     5  1
    7     4     7  ar
    8     5     6  2
    9     5    11  1
   10     7     8  ar
   11     8     9  ar
   12     8    12  1
