@<TRIPOS>MOLECULE
generated_molecule
17 20 0 0 0
SMALL
NO_CHARGES

@<TRIPOS>ATOM
     1  C1        -0.1974      1.0392      0.5193  C       1  LIG       0.0000
     2  C2        -1.7412      0.7598      0.5010  C       1  LIG       0.0000
     3  C3        -1.9457     -0.4801      0.2528  C       1  LIG       0.0000
     4  C4        -0.6059     -0.3836     -0.1143  C       1  LIG       0.0000
     5  C5         0.6842     -1.1128      0.3820  C       1  LIG       0.0000
     6  N6         1.4680      0.1337     -0.0895  N       1  LIG       0.0000
     7  C7         0.4303      0.2830     -1.0909  C       1  LIG       0.0000
     8  C8         1.5050     -0.8455     -0.9323  C       1  LIG       0.0000
     9  N9         0.6618      0.2570     -0.6079  N       1  LIG       0.0000
    10  H10        0.5288      1.6587      0.1833  H       1  LIG       0.0000
    11  H11       -0.4274      0.9904      1.6239  H       1  LIG       0.0000
    12  H12       -2.6211      1.3609      0.5918  H       1  LIG       0.0000
    13  H13       -2.8060     -1.0846      0.3720  H       1  LIG       0.0000
    14  H14        0.5527     -1.9437      1.0891  H       1  LIG       0.0000
    15  H15        2.1462      0.0061      0.5903  H       1  LIG       0.0000
    16  H16        0.1463      0.7901     -1.9173  H       1  LIG       0.0000
    17  H17        2.2214     -1.4287     -1.3534  H       1  LIG       0.0000
@<TRIPOS>BOND
    1     1    11  1
    2     2    12  1
    3     1     9  1
    4     1     2  1
    5     1    10  1
    6     4     9  1
    7     8     9  1
    8     2     3  2
    9     5    14  1
   10     3     4  1
   11     3    13  1
   12     4     5  1
   13     4     7  1
   14     8    17  1
   15     5     8  1
   16     7     8  1
   17     5     6  1
   18     6     7  1
   19     7    16  1
   20     6    15  1
