@<TRIPOS>MOLECULE
generated_molecule
15 16 0 0 0
SMALL
NO_CHARGES

@<TRIPOS>ATOM
     1  O1        -0.5078      1.5785      1.7848  O       1  LIG       0.0000
     2  C2         0.2696      0.6307      1.1727  C       1  LIG       0.0000
     3  C3         0.9188      0.6238     -0.2375  C       1  LIG       0.0000
     4  C4         0.3452     -0.1588     -1.4667  C       1  LIG       0.0000
     5  C5        -0.6630     -1.1198     -0.8281  C       1  LIG       0.0000
     6  C6        -0.3171     -0.7125      0.6151  C       1  LIG       0.0000
     7  O7         1.0766     -0.5337      0.5008  O       1  LIG       0.0000
     8  H8        -1.2284      2.1402      2.1568  H       1  LIG       0.0000
     9  H9         0.9685      0.7053      1.9717  H       1  LIG       0.0000
    10  H10        1.4589      1.5516     -0.4277  H       1  LIG       0.0000
    11  H11       -0.2820      0.2421     -2.2832  H       1  LIG       0.0000
    12  H12        1.2881     -0.4268     -1.9124  H       1  LIG       0.0000
    13  H13       -0.6293     -2.2124     -0.7361  H       1  LIG       0.0000
    14  H14       -1.6385     -0.9861     -1.3883  H       1  LIG       0.0000
    15  H15       -1.0595     -1.3221      1.0782  H       1  LIG       0.0000
@<TRIPOS>BOND
    1     6    15  1
    2     2     9  1
    3     1     8  1
    4     1     2  1
    5     2     6  1
    6     2     3  1
    7     6     7  1
    8     5     6  1
    9     3     7  1
   10     5    14  1
   11     5    13  1
   12     4     5  1
   13     3    10  1
   14     3     4  1
   15     4    12  1
   16     4    11  1
