@<TRIPOS>MOLECULE
generated_molecule
19 21 0 0 0
SMALL
NO_CHARGES

@<TRIPOS>ATOM
     1  C1         0.5317     -2.0546      1.0412  C       1  LIG       0.0000
     2  C2         1.1381     -0.6356      0.9841  C       1  LIG       0.0000
     3  O3         1.0640     -0.6250     -0.3993  O       1  LIG       0.0000
     4  C4        -0.0565      0.1877     -0.5810  C       1  LIG       0.0000
     5  C5        -0.3738      0.8064     -1.8233  C       1  LIG       0.0000
     6  C6        -0.1336      1.6241     -0.5408  C       1  LIG       0.0000
     7  O7        -1.5083      1.5165     -0.5602  O       1  LIG       0.0000
     8  C8        -1.4907      0.3128      0.0606  C       1  LIG       0.0000
     9  C9         0.9779      0.7714      0.3204  C       1  LIG       0.0000
    10  H10       -0.3271     -2.0920      0.3587  H       1  LIG       0.0000
    11  H11        0.1809     -2.2447      2.0673  H       1  LIG       0.0000
    12  H12        1.2838     -2.7269      0.6626  H       1  LIG       0.0000
    13  H13        1.5455     -0.3818      1.9703  H       1  LIG       0.0000
    14  H14        0.0068      1.4914     -2.5533  H       1  LIG       0.0000
    15  H15       -1.0090      0.0242     -2.1933  H       1  LIG       0.0000
    16  H16       -0.0590      2.6287     -0.2249  H       1  LIG       0.0000
    17  H17       -1.7778     -0.7253      0.0173  H       1  LIG       0.0000
    18  H18       -1.9066      0.8797      0.8656  H       1  LIG       0.0000
    19  H19        1.9136      1.2427      0.5279  H       1  LIG       0.0000
@<TRIPOS>BOND
    1     1    11  1
    2     2     3  1
    3     3     4  1
    4     1    10  1
    5     1     2  1
    6     1    12  1
    7     2    13  1
    8     8    17  1
    9     2     9  1
   10     8    18  1
   11     4     8  1
   12     4     5  1
   13     4     9  1
   14     7     8  1
   15     5    15  1
   16     5    14  1
   17     5     6  1
   18     9    19  1
   19     6     9  1
   20     6     7  1
   21     6    16  1
