@<TRIPOS>MOLECULE
generated_molecule
16 16 0 0 0
SMALL
NO_CHARGES

@<TRIPOS>ATOM
     1  C1         0.4053      1.2364      0.7004  C       1  LIG       0.0000
     2  N2        -0.3095      1.5745     -0.5736  N       1  LIG       0.0000
     3  C3        -0.0116      1.5288     -1.8879  C       1  LIG       0.0000
     4  N4        -0.1057      0.2088     -2.0359  N       1  LIG       0.0000
     5  C5        -0.5300     -0.3895     -0.8765  C       1  LIG       0.0000
     6  C6        -0.8634      0.4576      0.0350  C       1  LIG       0.0000
     7  C7        -0.3857     -1.6523     -0.1348  C       1  LIG       0.0000
     8  N8         0.6753     -2.0535      0.9052  N       1  LIG       0.0000
     9  O9        -1.2519     -2.4236     -0.0053  O       1  LIG       0.0000
    10  H10        1.4069      0.7724      0.5232  H       1  LIG       0.0000
    11  H11       -0.1418      0.3582      1.1098  H       1  LIG       0.0000
    12  H12        0.3784      2.0789      1.3008  H       1  LIG       0.0000
    13  H13        0.1485      2.3278     -2.5694  H       1  LIG       0.0000
    14  H14       -1.4754      0.3514      0.9178  H       1  LIG       0.0000
    15  H15        1.6986     -1.8473      0.8418  H       1  LIG       0.0000
    16  H16        0.3623     -2.5285      1.7493  H       1  LIG       0.0000
@<TRIPOS>BOND
    1     3    13  1
    2     1    11  1
    3     3     4  ar
    4     2     3  ar
    5     4     5  ar
    6     8    15  1
    7     1     2  1
    8     1    10  1
    9     1    12  1
   10     2     6  ar
   11     5     6  ar
   12     5     7  1
   13     8    16  1
   14     7     8  1
   15     6    14  1
   16     7     9  2
