@<TRIPOS>MOLECULE
generated_molecule
18 20 0 0 0
SMALL
NO_CHARGES

@<TRIPOS>ATOM
     1  C1         0.9405     -0.7152     -1.2367  C       1  LIG       0.0000
     2  C2        -0.5908     -0.9538     -1.4021  C       1  LIG       0.0000
     3  C3        -0.3460     -0.2635     -0.1640  C       1  LIG       0.0000
     4  C4        -0.3077      1.2877     -0.2800  C       1  LIG       0.0000
     5  C5         0.3347      0.9143      1.0595  C       1  LIG       0.0000
     6  C6        -0.7217      0.0000      1.8474  C       1  LIG       0.0000
     7  O7        -0.9335     -0.9664      0.8372  O       1  LIG       0.0000
     8  C8         1.1058     -0.1836      0.2635  C       1  LIG       0.0000
     9  H9         1.6334      0.0692     -1.4691  H       1  LIG       0.0000
    10  H10        1.0285     -1.6687     -1.7485  H       1  LIG       0.0000
    11  H11       -1.5762     -0.5065     -1.4506  H       1  LIG       0.0000
    12  H12       -0.5644     -1.8854     -1.9602  H       1  LIG       0.0000
    13  H13       -0.8396      1.1750     -1.2167  H       1  LIG       0.0000
    14  H14       -0.0208      2.3138     -0.0472  H       1  LIG       0.0000
    15  H15        0.8550      1.7827      1.4670  H       1  LIG       0.0000
    16  H16       -0.8350      0.9033      2.4770  H       1  LIG       0.0000
    17  H17       -1.1390     -0.8887      2.1740  H       1  LIG       0.0000
    18  H18        1.9769     -0.4143      0.8495  H       1  LIG       0.0000
@<TRIPOS>BOND
    1     1    10  1
    2     8    18  1
    3     2    11  1
    4     1     8  1
    5     1     2  1
    6     1     9  1
    7     3     8  1
    8     5     8  1
    9     2    12  1
   10     2     3  1
   11     4    13  1
   12     3     4  1
   13     3     7  1
   14     5    15  1
   15     4     5  1
   16     5     6  1
   17     4    14  1
   18     6     7  1
   19     6    16  1
   20     6    17  1
