@<TRIPOS>MOLECULE
generated_molecule
25 25 0 0 0
SMALL
NO_CHARGES

@<TRIPOS>ATOM
     1  C1         0.1837      3.9464     -1.1563  C       1  LIG       0.0000
     2  C2         0.5961      2.5514     -0.2750  C       1  LIG       0.0000
     3  C3         1.0696      1.3889      0.8189  C       1  LIG       0.0000
     4  C4         0.8146     -0.2350      0.8321  C       1  LIG       0.0000
     5  C5        -0.3678     -1.3443      1.1944  C       1  LIG       0.0000
     6  C6        -0.5783     -2.9242      0.9909  C       1  LIG       0.0000
     7  C7        -0.8005     -3.0711     -0.5588  C       1  LIG       0.0000
     8  C8        -0.8638     -1.6186     -1.1011  C       1  LIG       0.0000
     9  O9        -0.9889     -0.9196      0.0551  O       1  LIG       0.0000
    10  H10       -0.8777      3.8707     -1.5223  H       1  LIG       0.0000
    11  H11        0.2432      4.8128     -0.4660  H       1  LIG       0.0000
    12  H12        0.8690      4.0927     -2.0325  H       1  LIG       0.0000
    13  H13        1.1164      2.1977     -1.1209  H       1  LIG       0.0000
    14  H14       -0.1491      3.0079      0.3026  H       1  LIG       0.0000
    15  H15        2.0166      1.0313      1.0875  H       1  LIG       0.0000
    16  H16        0.6709      2.2130      1.4699  H       1  LIG       0.0000
    17  H17        1.0547     -1.1992      1.2770  H       1  LIG       0.0000
    18  H18        1.2973      0.3352      0.1021  H       1  LIG       0.0000
    19  H19       -0.7780     -1.2805      2.2147  H       1  LIG       0.0000
    20  H20       -1.0429     -3.0001      1.9889  H       1  LIG       0.0000
    21  H21       -0.1408     -3.9355      0.9679  H       1  LIG       0.0000
    22  H22       -1.7181     -3.5080     -0.9633  H       1  LIG       0.0000
    23  H23        0.0028     -3.7660     -0.8364  H       1  LIG       0.0000
    24  H24        0.0348     -1.5835     -1.7538  H       1  LIG       0.0000
    25  H25       -1.6638     -1.0621     -1.5155  H       1  LIG       0.0000
@<TRIPOS>BOND
    1     2    14  1
    2     1    11  1
    3     1    10  1
    4     1     2  1
    5     1    12  1
    6     2    13  1
    7     2     3  1
    8     4    18  1
    9     3    15  1
   10     3     4  1
   11     3    16  1
   12     4    17  1
   13     4     5  1
   14     6    21  1
   15     8    25  1
   16     5     9  1
   17     8     9  1
   18     5     6  1
   19     5    19  1
   20     6    20  1
   21     6     7  1
   22     7     8  1
   23     8    24  1
   24     7    23  1
   25     7    22  1
