@<TRIPOS>MOLECULE
generated_molecule
16 17 0 0 0
SMALL
NO_CHARGES

@<TRIPOS>ATOM
     1  O1         1.7961      2.1922     -0.6785  O       1  LIG       0.0000
     2  C2         1.2331      1.4721      0.0987  C       1  LIG       0.0000
     3  C3         1.1690     -0.0913      0.1781  C       1  LIG       0.0000
     4  C4        -0.2090      0.4940      0.5928  C       1  LIG       0.0000
     5  C5        -1.5257     -0.1816      0.8107  C       1  LIG       0.0000
     6  C6        -0.8507     -1.0664     -0.3013  C       1  LIG       0.0000
     7  C7         0.1818     -0.0910     -0.8182  C       1  LIG       0.0000
     8  O8         0.1792      1.7994      1.0670  O       1  LIG       0.0000
     9  H9         2.1189     -0.3911      0.6217  H       1  LIG       0.0000
    10  H10        0.7865     -0.9305     -0.3676  H       1  LIG       0.0000
    11  H11       -2.1838      0.6622      0.8263  H       1  LIG       0.0000
    12  H12       -1.9454     -0.9226      1.4520  H       1  LIG       0.0000
    13  H13       -1.7037     -1.7033      0.0850  H       1  LIG       0.0000
    14  H14       -0.2025     -1.4543     -0.9772  H       1  LIG       0.0000
    15  H15       -0.1310      0.2391     -1.7949  H       1  LIG       0.0000
    16  H16        1.2871     -0.0269     -0.7944  H       1  LIG       0.0000
@<TRIPOS>BOND
    1     1     2  2
    2     3     9  1
    3     5    12  1
    4     2     3  1
    5     2     8  1
    6     3     4  1
    7     3    10  1
    8     5    11  1
    9     4     8  1
   10     4     5  1
   11     5     6  1
   12     4     7  1
   13     6    14  1
   14     6     7  1
   15     6    13  1
   16     7    16  1
   17     7    15  1
