@<TRIPOS>MOLECULE
generated_molecule
20 22 0 0 0
SMALL
NO_CHARGES

@<TRIPOS>ATOM
     1  C1        -1.1756      0.8934     -0.7089  C       1  LIG       0.0000
     2  C2         0.1871      0.9966     -0.0421  C       1  LIG       0.0000
     3  C3         0.8529      0.6275      1.2794  C       1  LIG       0.0000
     4  O4         2.1205      0.1069      1.1562  O       1  LIG       0.0000
     5  C5         1.2782     -0.2390      0.1684  C       1  LIG       0.0000
     6  C6         2.0046     -1.4742     -0.2298  C       1  LIG       0.0000
     7  C7        -0.1781     -0.2513      0.3652  C       1  LIG       0.0000
     8  C8        -1.4939      0.2326     -0.0961  C       1  LIG       0.0000
     9  N9        -1.0893     -1.1865     -0.2168  N       1  LIG       0.0000
    10  H10       -1.0072      0.8852     -1.7644  H       1  LIG       0.0000
    11  H11       -1.7087      1.7835     -0.3347  H       1  LIG       0.0000
    12  H12       -1.7512     -0.0036     -0.4147  H       1  LIG       0.0000
    13  H13        0.3579      2.0352      0.0955  H       1  LIG       0.0000
    14  H14        0.7814      1.3048      2.0948  H       1  LIG       0.0000
    15  H15        2.7954     -1.2752     -0.9943  H       1  LIG       0.0000
    16  H16        2.4814     -1.8144      0.6984  H       1  LIG       0.0000
    17  H17        1.2895     -2.1614     -0.6251  H       1  LIG       0.0000
    18  H18       -2.5941      0.0496      0.0032  H       1  LIG       0.0000
    19  H19       -1.2228      1.2289     -0.3075  H       1  LIG       0.0000
    20  H20       -1.9281     -1.7387     -0.1265  H       1  LIG       0.0000
@<TRIPOS>BOND
    1     3    14  1
    2     8    19  1
    3     1    11  1
    4     2     3  1
    5     3     7  1
    6     3     4  1
    7     2    13  1
    8     9    20  1
    9     7     8  1
   10     8     9  1
   11     8    18  1
   12     1     2  1
   13     2     5  1
   14     1    10  1
   15     1    12  1
   16     7     9  1
   17     5     7  1
   18     4     5  1
   19     5     6  1
   20     6    16  1
   21     6    15  1
   22     6    17  1
