@<TRIPOS>MOLECULE
generated_molecule
21 22 0 0 0
SMALL
NO_CHARGES

@<TRIPOS>ATOM
     1  C1        -1.5573     -1.9417      0.7695  C       1  LIG       0.0000
     2  C2        -0.1849     -2.2132      0.1041  C       1  LIG       0.0000
     3  C3         0.1408     -0.7006      0.2306  C       1  LIG       0.0000
     4  C4        -0.9199     -0.6604      1.3476  C       1  LIG       0.0000
     5  C5         0.7554      0.2149     -0.4114  C       1  LIG       0.0000
     6  C6         0.0677      1.0763     -1.4568  C       1  LIG       0.0000
     7  C7         0.0281      2.2523     -0.4347  C       1  LIG       0.0000
     8  O8         1.3471      2.2281     -0.1097  O       1  LIG       0.0000
     9  C9         2.0585      1.0515     -0.1882  C       1  LIG       0.0000
    10  H10       -2.3089     -1.7685     -0.0003  H       1  LIG       0.0000
    11  H11       -1.8917     -2.6302      1.5597  H       1  LIG       0.0000
    12  H12        0.6379     -2.7338      0.6104  H       1  LIG       0.0000
    13  H13       -0.4757     -2.7809     -0.7721  H       1  LIG       0.0000
    14  H14       -0.3233      0.1575      1.7200  H       1  LIG       0.0000
    15  H15       -1.7901     -0.8336      1.9778  H       1  LIG       0.0000
    16  H16       -0.1163      1.9241     -2.1063  H       1  LIG       0.0000
    17  H17       -0.0394      0.1976     -2.0621  H       1  LIG       0.0000
    18  H18       -1.0287      1.9421     -0.3505  H       1  LIG       0.0000
    19  H19        0.2720      3.1697     -0.0709  H       1  LIG       0.0000
    20  H20        2.6902      1.8756     -0.4155  H       1  LIG       0.0000
    21  H21        2.6384      0.1732      0.0587  H       1  LIG       0.0000
@<TRIPOS>BOND
    1     1    11  1
    2     1    10  1
    3     1     4  1
    4     1     2  1
    5     4    15  1
    6     2    12  1
    7     3     4  1
    8     4    14  1
    9     2     3  1
   10     2    13  1
   11     3     5  2
   12     9    20  1
   13     6    17  1
   14     7    19  1
   15     5     6  1
   16     5     9  1
   17     6     7  1
   18     6    16  1
   19     9    21  1
   20     8     9  1
   21     7     8  1
   22     7    18  1
