@<TRIPOS>MOLECULE
generated_molecule
16 16 0 0 0
SMALL
NO_CHARGES

@<TRIPOS>ATOM
     1  N1         1.8554     -0.4327      0.8917  N       1  LIG       0.0000
     2  C2         1.4286     -0.5594     -0.4035  C       1  LIG       0.0000
     3  O3         0.2001     -0.5101     -0.8633  O       1  LIG       0.0000
     4  C4        -1.1371     -0.6341     -0.9029  C       1  LIG       0.0000
     5  C5        -1.5959     -0.2710      0.5257  C       1  LIG       0.0000
     6  O6        -2.5042     -0.7557      1.1773  O       1  LIG       0.0000
     7  C7        -0.6074      0.7778      0.9616  C       1  LIG       0.0000
     8  C8         0.3823      0.7864     -0.3133  C       1  LIG       0.0000
     9  O9         0.3506      1.8256      0.5809  O       1  LIG       0.0000
    10  H10        2.0163      0.0131      1.6836  H       1  LIG       0.0000
    11  H11        2.1469     -0.7343     -1.0620  H       1  LIG       0.0000
    12  H12       -2.1151     -1.0953     -0.8617  H       1  LIG       0.0000
    13  H13       -0.8420     -0.4818     -1.9334  H       1  LIG       0.0000
    14  H14       -0.7671      0.9912      1.9917  H       1  LIG       0.0000
    15  H15        1.4353      0.6103     -0.3524  H       1  LIG       0.0000
    16  H16       -0.2467      0.4700     -1.1200  H       1  LIG       0.0000
@<TRIPOS>BOND
    1     4    13  1
    2     4    12  1
    3     4     5  1
    4     3     4  1
    5     5     6  2
    6     5     7  1
    7     2     3  1
    8     2    11  1
    9     1     2  1
   10     7    14  1
   11     7     9  1
   12     7     8  1
   13     8     9  1
   14     1    10  1
   15     8    16  1
   16     8    15  1
