@<TRIPOS>MOLECULE
generated_molecule
17 17 0 0 0
SMALL
NO_CHARGES

@<TRIPOS>ATOM
     1  C1        -0.2922      1.6530     -0.0716  C       1  LIG       0.0000
     2  C2        -0.0007      0.1663      0.2719  C       1  LIG       0.0000
     3  C3         0.5490      0.7864      1.6065  C       1  LIG       0.0000
     4  C4         0.1697     -1.3624      0.4605  C       1  LIG       0.0000
     5  C5        -0.3017     -0.8684     -0.8595  C       1  LIG       0.0000
     6  O6        -1.1896     -1.8172     -1.2986  O       1  LIG       0.0000
     7  C7         0.3461     -0.6135     -2.1831  C       1  LIG       0.0000
     8  N8         0.8870     -0.4594     -3.1934  N       1  LIG       0.0000
     9  H9        -0.9738      1.7165     -0.9203  H       1  LIG       0.0000
    10  H10        0.6753      2.0661     -0.2688  H       1  LIG       0.0000
    11  H11       -0.7760      2.2250      0.7756  H       1  LIG       0.0000
    12  H12        1.4233      0.2459      1.8022  H       1  LIG       0.0000
    13  H13        0.6733      1.8527      1.4140  H       1  LIG       0.0000
    14  H14       -0.0995      0.6663      2.5231  H       1  LIG       0.0000
    15  H15        0.4526     -1.2990      1.4737  H       1  LIG       0.0000
    16  H16        0.1842     -2.3237     -0.0097  H       1  LIG       0.0000
    17  H17       -1.7269     -2.6346     -1.5224  H       1  LIG       0.0000
@<TRIPOS>BOND
    1     3    12  1
    2     1    10  1
    3     4    15  1
    4     3    13  1
    5     3    14  1
    6     2     3  1
    7     4    16  1
    8     2     4  1
    9     4     5  1
   10     1     2  1
   11     2     5  1
   12     1     9  1
   13     1    11  1
   14     5     7  1
   15     5     6  1
   16     7     8  3
   17     6    17  1
