@<TRIPOS>MOLECULE
generated_molecule
18 21 0 0 0
SMALL
NO_CHARGES

@<TRIPOS>ATOM
     1  C1        -1.8420      0.5329      0.6693  C       1  LIG       0.0000
     2  C2        -0.3361      0.4508      0.2771  C       1  LIG       0.0000
     3  C3         0.5983      0.6276     -0.9020  C       1  LIG       0.0000
     4  C4         1.9352      1.0093     -0.2454  C       1  LIG       0.0000
     5  N5         1.0161      0.7560      0.8615  N       1  LIG       0.0000
     6  C6         0.6631     -0.7344      0.6118  C       1  LIG       0.0000
     7  C7         0.4522     -0.9362     -0.9480  C       1  LIG       0.0000
     8  O8        -0.8184     -1.4771     -1.0547  O       1  LIG       0.0000
     9  C9        -0.8473     -1.0334      0.2295  C       1  LIG       0.0000
    10  H10       -1.9497      1.0868      1.6130  H       1  LIG       0.0000
    11  H11       -2.1837     -0.4912      0.7913  H       1  LIG       0.0000
    12  H12       -2.4190      0.9965     -0.1328  H       1  LIG       0.0000
    13  H13        0.2792      1.2426     -1.7265  H       1  LIG       0.0000
    14  H14        2.3177      2.0082     -0.1247  H       1  LIG       0.0000
    15  H15        2.7093      0.2888     -0.5478  H       1  LIG       0.0000
    16  H16        1.2104     -1.2827      1.3530  H       1  LIG       0.0000
    17  H17        0.8953     -1.6942     -1.5164  H       1  LIG       0.0000
    18  H18       -1.6805     -1.3501      0.7915  H       1  LIG       0.0000
@<TRIPOS>BOND
    1     3    13  1
    2     7    17  1
    3     3     7  1
    4     3     4  1
    5     2     3  1
    6     7     8  1
    7     6     7  1
    8     8     9  1
    9     1    11  1
   10     4    15  1
   11     4    14  1
   12     4     5  1
   13     1    10  1
   14     1     2  1
   15     2     9  1
   16     2     5  1
   17     1    12  1
   18     6     9  1
   19     9    18  1
   20     5     6  1
   21     6    16  1
