@<TRIPOS>MOLECULE
generated_molecule
17 19 0 0 0
SMALL
NO_CHARGES

@<TRIPOS>ATOM
     1  C1        -0.9449      2.1599      0.6359  C       1  LIG       0.0000
     2  N2        -0.8200      0.7908      0.1118  N       1  LIG       0.0000
     3  C3         0.3678      0.3343      0.9022  C       1  LIG       0.0000
     4  C4         0.9867     -0.9249      0.2198  C       1  LIG       0.0000
     5  C5        -0.4708     -0.9243      0.7504  C       1  LIG       0.0000
     6  C6        -0.9544     -0.4660     -0.5906  C       1  LIG       0.0000
     7  C7         0.3041     -1.2465     -1.1068  C       1  LIG       0.0000
     8  C8         1.6947     -1.2447     -1.7452  C       1  LIG       0.0000
     9  N9         2.7487     -1.2796     -2.2131  N       1  LIG       0.0000
    10  H10       -1.6037      2.6684     -0.0546  H       1  LIG       0.0000
    11  H11       -1.3344      2.1959      1.6904  H       1  LIG       0.0000
    12  H12        0.0624      2.6004      0.6918  H       1  LIG       0.0000
    13  H13        1.1611      0.7510      1.5211  H       1  LIG       0.0000
    14  H14        1.9794     -1.1545      0.5676  H       1  LIG       0.0000
    15  H15       -0.9833     -1.5713      1.4117  H       1  LIG       0.0000
    16  H16       -1.8092     -0.7392     -1.2138  H       1  LIG       0.0000
    17  H17       -0.3844     -1.9498     -1.5788  H       1  LIG       0.0000
@<TRIPOS>BOND
    1     3    13  1
    2     4    14  1
    3     3     4  1
    4     3     5  1
    5     2     3  1
    6     4     5  1
    7     4     7  1
    8     1    11  1
    9     5    15  1
   10     5     6  1
   11     1    10  1
   12     1     2  1
   13     2     6  1
   14     1    12  1
   15     7    17  1
   16     6     7  1
   17     7     8  1
   18     6    16  1
   19     8     9  3
