@<TRIPOS>MOLECULE
generated_molecule
20 19 0 0 0
SMALL
NO_CHARGES

@<TRIPOS>ATOM
     1  C1         0.6269      2.5349     -1.6076  C       1  LIG       0.0000
     2  N2         1.1256      1.8303     -0.3911  N       1  LIG       0.0000
     3  C3         0.6112      0.8069      0.4983  C       1  LIG       0.0000
     4  O4         1.3811      0.7623      1.4404  O       1  LIG       0.0000
     5  N5        -0.5015     -0.1206      0.3845  N       1  LIG       0.0000
     6  C6        -1.8638      0.0814     -0.0432  C       1  LIG       0.0000
     7  C7        -0.2812     -1.5410      0.3966  C       1  LIG       0.0000
     8  C8         0.6383     -2.1569      1.5089  C       1  LIG       0.0000
     9  N9        -0.7371     -2.4374     -0.5000  N       1  LIG       0.0000
    10  H10        1.5269      2.5736     -2.2609  H       1  LIG       0.0000
    11  H11       -0.2140      1.9929     -1.9892  H       1  LIG       0.0000
    12  H12        0.1899      3.5621     -1.4604  H       1  LIG       0.0000
    13  H13        2.0785      2.1233     -0.1810  H       1  LIG       0.0000
    14  H14       -2.5141     -0.8590     -0.0756  H       1  LIG       0.0000
    15  H15       -1.7772      0.4387     -1.0666  H       1  LIG       0.0000
    16  H16       -2.3892      0.8037      0.6397  H       1  LIG       0.0000
    17  H17        1.2066     -2.9681      1.0259  H       1  LIG       0.0000
    18  H18        0.0273     -2.5522      2.3350  H       1  LIG       0.0000
    19  H19        1.3085     -1.4048      1.8851  H       1  LIG       0.0000
    20  H20       -0.4430     -3.4700     -0.5389  H       1  LIG       0.0000
@<TRIPOS>BOND
    1     8    17  1
    2     1    10  1
    3     8    18  1
    4     8    19  1
    5     7     8  1
    6     3     4  2
    7     1    11  1
    8     1    12  1
    9     1     2  1
   10     2     3  1
   11     3     5  1
   12     2    13  1
   13     5     7  1
   14     7     9  2
   15     5     6  1
   16     9    20  1
   17     6    16  1
   18     6    14  1
   19     6    15  1
