@<TRIPOS>MOLECULE
generated_molecule
18 19 0 0 0
SMALL
NO_CHARGES

@<TRIPOS>ATOM
     1  N1        -1.7031     -0.0027      0.2623  N       1  LIG       0.0000
     2  C2        -0.4559      0.7036     -0.0587  C       1  LIG       0.0000
     3  C3         0.7836      1.3229     -0.6423  C       1  LIG       0.0000
     4  C4         0.8403     -0.0681     -1.1736  C       1  LIG       0.0000
     5  C5         0.0500     -0.7204     -0.0799  C       1  LIG       0.0000
     6  C6        -0.2248     -1.5251      1.2295  C       1  LIG       0.0000
     7  N7         0.2761     -2.1767     -0.0037  N       1  LIG       0.0000
     8  C8         1.1648      2.6143      0.1624  C       1  LIG       0.0000
     9  N9         1.5342      3.5595      0.7124  N       1  LIG       0.0000
    10  H10       -1.7306     -0.9972      0.2286  H       1  LIG       0.0000
    11  H11       -2.4570      0.6305      0.4858  H       1  LIG       0.0000
    12  H12       -0.8692      1.6904      0.1375  H       1  LIG       0.0000
    13  H13        1.5028      1.7091     -1.3912  H       1  LIG       0.0000
    14  H14        0.5480     -0.8908     -1.8014  H       1  LIG       0.0000
    15  H15        1.7131      0.4552     -1.5814  H       1  LIG       0.0000
    16  H16        0.1168     -2.3854      1.8514  H       1  LIG       0.0000
    17  H17       -0.8944     -0.8581      1.7292  H       1  LIG       0.0000
    18  H18       -0.1947     -3.0611     -0.0668  H       1  LIG       0.0000
@<TRIPOS>BOND
    1     7    18  1
    2     1    10  1
    3     6     7  1
    4     5     7  1
    5     6    17  1
    6     2    12  1
    7     5     6  1
    8     6    16  1
    9     1    11  1
   10     1     2  1
   11     2     5  1
   12     2     3  1
   13     4     5  1
   14     4    14  1
   15     3     4  1
   16     4    15  1
   17     3     8  1
   18     3    13  1
   19     8     9  3
