@<TRIPOS>MOLECULE
generated_molecule
18 17 0 0 0
SMALL
NO_CHARGES

@<TRIPOS>ATOM
     1  C1         1.1422      1.8548      3.0543  C       1  LIG       0.0000
     2  C2        -0.3303      1.4461      2.9481  C       1  LIG       0.0000
     3  C3        -0.4819      0.9009      1.7253  C       1  LIG       0.0000
     4  C4         0.5389     -4.3548     -7.1311  C       1  LIG       0.0000
     5  C5        -1.7542      1.1407      0.7333  C       1  LIG       0.0000
     6  C6         0.7864      0.1177      1.5961  C       1  LIG       0.0000
     7  N7         1.8380     -0.5604      1.4880  N       1  LIG       0.0000
     8  H8         1.2463      2.8484      2.5534  H       1  LIG       0.0000
     9  H9         1.8172      1.2198      2.4227  H       1  LIG       0.0000
    10  H10        1.3505      1.7907      4.0805  H       1  LIG       0.0000
    11  H11       -0.8720      2.3290      3.0722  H       1  LIG       0.0000
    12  H12       -0.7100      0.6341      3.4940  H       1  LIG       0.0000
    13  H13        0.0544     -4.9804     -6.8165  H       1  LIG       0.0000
    14  H14        0.1777     -3.6644     -7.6484  H       1  LIG       0.0000
    15  H15        1.3738     -4.2903     -6.9965  H       1  LIG       0.0000
    16  H16       -2.3371      1.7664      1.3056  H       1  LIG       0.0000
    17  H17       -1.5325      1.6109     -0.2927  H       1  LIG       0.0000
    18  H18       -2.3073      0.1908      0.4118  H       1  LIG       0.0000
@<TRIPOS>BOND
    1     5    16  1
    2     5    17  1
    3     5    18  1
    4     3     5  1
    5     2    11  1
    6     1     9  1
    7     6     7  3
    8     1     8  1
    9     1     2  1
   10     2     3  1
   11     2    12  1
   12     3     6  1
   13     1    10  1
   14     3     4  1
   15     4    13  1
   16     4    14  1
   17     4    15  1
