@<TRIPOS>MOLECULE
generated_molecule
23 24 0 0 0
SMALL
NO_CHARGES

@<TRIPOS>ATOM
     1  C1         1.1890      1.0511     -1.5047  C       1  LIG       0.0000
     2  C2         0.2635     -0.2036     -1.6614  C       1  LIG       0.0000
     3  C3         0.5613     -0.2576     -0.1644  C       1  LIG       0.0000
     4  C4        -0.7786     -0.9087      0.2280  C       1  LIG       0.0000
     5  C5        -0.7989     -1.2644     -1.2978  C       1  LIG       0.0000
     6  C6        -0.4941      0.1653      1.2831  C       1  LIG       0.0000
     7  C7        -0.9996     -0.2641      2.6175  C       1  LIG       0.0000
     8  C8         0.4693      0.8916      0.2315  C       1  LIG       0.0000
     9  O9         0.0127      1.5122      1.3799  O       1  LIG       0.0000
    10  H10        0.8000      1.6884     -0.7035  H       1  LIG       0.0000
    11  H11        1.1881      1.5813     -2.4679  H       1  LIG       0.0000
    12  H12        2.1791      0.7344     -1.1830  H       1  LIG       0.0000
    13  H13        0.0263     -0.3891     -2.7296  H       1  LIG       0.0000
    14  H14        1.0434      0.6780     -0.3823  H       1  LIG       0.0000
    15  H15        0.9561     -0.8583      0.6373  H       1  LIG       0.0000
    16  H16       -1.5643     -1.4863      0.7040  H       1  LIG       0.0000
    17  H17       -1.6949     -1.7972     -0.9541  H       1  LIG       0.0000
    18  H18       -0.5761     -1.6488     -2.3065  H       1  LIG       0.0000
    19  H19       -0.1350     -0.3226      3.2556  H       1  LIG       0.0000
    20  H20       -1.6952      0.4998      2.9432  H       1  LIG       0.0000
    21  H21       -1.4958     -1.2393      2.5116  H       1  LIG       0.0000
    22  H22        1.1338      1.6999      0.1253  H       1  LIG       0.0000
    23  H23        0.4103      0.1379     -0.5617  H       1  LIG       0.0000
@<TRIPOS>BOND
    1     3    15  1
    2     7    21  1
    3     7    19  1
    4     1    11  1
    5     3    14  1
    6     7    20  1
    7     6     7  1
    8     3     4  1
    9     2     3  1
   10     1    10  1
   11     1     2  1
   12     1    12  1
   13     4    16  1
   14     4     6  1
   15     4     5  1
   16     2    13  1
   17     2     5  1
   18     6     9  1
   19     6     8  1
   20     8     9  1
   21     5    18  1
   22     5    17  1
   23     8    22  1
   24     8    23  1
