@<TRIPOS>MOLECULE
generated_molecule
16 16 0 0 0
SMALL
NO_CHARGES

@<TRIPOS>ATOM
     1  C1         1.0003      0.8546     -0.8285  C       1  LIG       0.0000
     2  O2         0.2012      1.6909      0.0751  O       1  LIG       0.0000
     3  C3        -0.3071      0.9564      0.9404  C       1  LIG       0.0000
     4  N4        -1.3860      0.5785      0.2509  N       1  LIG       0.0000
     5  N5        -0.9879     -0.7424      0.4162  N       1  LIG       0.0000
     6  C6        -1.2542     -0.7164     -0.9124  C       1  LIG       0.0000
     7  C7         0.1214     -1.0749      1.2203  C       1  LIG       0.0000
     8  O8         0.8280     -2.0678      1.4625  O       1  LIG       0.0000
     9  N9         0.5208      0.0800      1.6859  N       1  LIG       0.0000
    10  H10        0.8439     -0.3120     -0.7717  H       1  LIG       0.0000
    11  H11        1.9287      1.0559     -0.3606  H       1  LIG       0.0000
    12  H12        0.7213      1.1438     -1.8001  H       1  LIG       0.0000
    13  H13       -0.7474      0.0375     -1.4354  H       1  LIG       0.0000
    14  H14       -2.2662     -1.2722     -1.0519  H       1  LIG       0.0000
    15  H15       -0.4344     -0.3820     -1.3517  H       1  LIG       0.0000
    16  H16        1.2178      0.1702      2.4608  H       1  LIG       0.0000
@<TRIPOS>BOND
    1     6    13  1
    2     6    15  1
    3     6    14  1
    4     5     6  1
    5     7     8  2
    6     5     7  ar
    7     4     5  ar
    8     7     9  ar
    9     3     4  ar
   10     3     9  ar
   11     9    16  1
   12     2     3  1
   13     1    11  1
   14     1     2  1
   15     1    10  1
   16     1    12  1
