@<TRIPOS>MOLECULE
generated_molecule
19 18 0 0 0
SMALL
NO_CHARGES

@<TRIPOS>ATOM
     1  C1         1.3197      2.7910     -2.5614  C       1  LIG       0.0000
     2  C2         1.1347      1.7622     -1.4172  C       1  LIG       0.0000
     3  C3         0.9878      0.9395     -0.5077  C       1  LIG       0.0000
     4  C4         0.7974     -0.1348      0.6069  C       1  LIG       0.0000
     5  C5        -0.1852     -1.3971      0.7202  C       1  LIG       0.0000
     6  C6        -1.5104     -1.0380     -0.0615  C       1  LIG       0.0000
     7  O7        -2.4810     -0.0840      0.2847  O       1  LIG       0.0000
     8  C8        -0.1802     -2.0245      2.1116  C       1  LIG       0.0000
     9  C9        -0.1073     -2.5970      3.2291  C       1  LIG       0.0000
    10  H10        2.4141      2.8835     -2.7057  H       1  LIG       0.0000
    11  H11        0.7919      2.4063     -3.4577  H       1  LIG       0.0000
    12  H12        0.8820      3.7902     -2.2874  H       1  LIG       0.0000
    13  H13        1.8178     -0.4920      0.4574  H       1  LIG       0.0000
    14  H14        0.5267      0.4298      1.4842  H       1  LIG       0.0000
    15  H15        0.1027     -2.3914      0.3554  H       1  LIG       0.0000
    16  H16       -0.9728     -0.7814     -0.9410  H       1  LIG       0.0000
    17  H17       -2.3852     -1.7295     -0.0803  H       1  LIG       0.0000
    18  H18       -2.9437      0.7607      0.5629  H       1  LIG       0.0000
    19  H19       -0.0089     -3.0937      4.2077  H       1  LIG       0.0000
@<TRIPOS>BOND
    1     6    17  1
    2     6    16  1
    3     6     7  1
    4     5     6  1
    5     7    18  1
    6     4    13  1
    7     1    11  1
    8     3     4  1
    9     4     5  1
   10     4    14  1
   11     2     3  3
   12     5     8  1
   13     5    15  1
   14     1     2  1
   15     1    12  1
   16     1    10  1
   17     8     9  3
   18     9    19  1
