@<TRIPOS>MOLECULE
generated_molecule
22 23 0 0 0
SMALL
NO_CHARGES

@<TRIPOS>ATOM
     1  C1        -1.5929     -2.0738     -1.1190  C       1  LIG       0.0000
     2  C2        -1.3642     -0.6132     -0.4634  C       1  LIG       0.0000
     3  C3        -1.2134      0.8713     -0.0725  C       1  LIG       0.0000
     4  O4        -1.0064      2.2212      0.0462  O       1  LIG       0.0000
     5  C5         0.2326      1.4266      0.3130  C       1  LIG       0.0000
     6  C6         0.9820      0.1168      0.2460  C       1  LIG       0.0000
     7  C7         2.1841      0.8260      0.9825  C       1  LIG       0.0000
     8  C8         1.1303     -1.4018     -0.0581  C       1  LIG       0.0000
     9  N9        -0.0196     -0.6847     -0.4789  N       1  LIG       0.0000
    10  H10       -2.2812     -2.6877     -0.4214  H       1  LIG       0.0000
    11  H11       -0.6458     -2.5789     -1.2599  H       1  LIG       0.0000
    12  H12       -2.1310     -2.0868     -2.1389  H       1  LIG       0.0000
    13  H13       -2.4413     -0.5788     -0.0811  H       1  LIG       0.0000
    14  H14       -2.3283      0.9007     -0.0483  H       1  LIG       0.0000
    15  H15       -0.6165      3.1617      0.1520  H       1  LIG       0.0000
    16  H16        1.0325      1.9359     -0.1663  H       1  LIG       0.0000
    17  H17       -0.0207      2.0740      1.1766  H       1  LIG       0.0000
    18  H18        2.8198      0.1127      1.5270  H       1  LIG       0.0000
    19  H19        2.7808      1.3419      0.2247  H       1  LIG       0.0000
    20  H20        1.7229      1.5243      1.6820  H       1  LIG       0.0000
    21  H21        0.9717     -2.1759     -0.7969  H       1  LIG       0.0000
    22  H22        1.8048     -1.6312      0.7547  H       1  LIG       0.0000
@<TRIPOS>BOND
    1     4    15  1
    2     3    14  1
    3     3     4  1
    4     3     5  1
    5     2     3  1
    6     5    17  1
    7     5    16  1
    8     1    11  1
    9     5     6  1
   10     1    10  1
   11     2    13  1
   12     1     2  1
   13     2     9  1
   14     1    12  1
   15     8    22  1
   16     6     8  1
   17     6     9  1
   18     6     7  1
   19     8     9  1
   20     8    21  1
   21     7    18  1
   22     7    20  1
   23     7    19  1
