@<TRIPOS>MOLECULE
generated_molecule
16 16 0 0 0
SMALL
NO_CHARGES

@<TRIPOS>ATOM
     1  C1         1.8943     -0.1925     -0.3914  C       1  LIG       0.0000
     2  N2         0.4751     -0.3114      0.0011  N       1  LIG       0.0000
     3  C3        -0.1254      0.6391      0.7035  C       1  LIG       0.0000
     4  N4        -0.2038      0.4650      2.0880  N       1  LIG       0.0000
     5  C5        -1.2105      1.1907      0.0415  C       1  LIG       0.0000
     6  C6        -1.4425      0.3492     -1.0113  C       1  LIG       0.0000
     7  C7        -0.4335     -0.5987     -0.9591  C       1  LIG       0.0000
     8  O8        -0.5731     -1.8218     -1.3155  O       1  LIG       0.0000
     9  H9         2.1849     -1.0998     -0.8685  H       1  LIG       0.0000
    10  H10        2.0154      0.6541     -1.2142  H       1  LIG       0.0000
    11  H11        2.4432      0.1741      0.4585  H       1  LIG       0.0000
    12  H12       -0.6280     -0.4285      2.3081  H       1  LIG       0.0000
    13  H13       -0.0065      1.2010      2.6529  H       1  LIG       0.0000
    14  H14       -1.6529      2.1214      0.2569  H       1  LIG       0.0000
    15  H15       -2.2080      0.3986     -1.7311  H       1  LIG       0.0000
    16  H16       -0.5287     -2.7404     -1.0194  H       1  LIG       0.0000
@<TRIPOS>BOND
    1     4    13  1
    2     4    12  1
    3     3     4  1
    4     5    14  1
    5     3     5  ar
    6     2     3  ar
    7     1    10  1
    8     5     6  ar
    9     1     2  1
   10     2     7  ar
   11     1     9  1
   12     1    11  1
   13     6     7  ar
   14     6    15  1
   15     7     8  1
   16     8    16  1
