@<TRIPOS>MOLECULE
generated_molecule
16 17 0 0 0
SMALL
NO_CHARGES

@<TRIPOS>ATOM
     1  O1         0.8655      1.4073      0.6789  O       1  LIG       0.0000
     2  C2        -0.2161      1.2600     -0.1578  C       1  LIG       0.0000
     3  C3         0.2147      1.1849     -1.7035  C       1  LIG       0.0000
     4  N4        -0.1593     -0.2026     -1.8604  N       1  LIG       0.0000
     5  C5        -0.2396     -0.8380     -0.7047  C       1  LIG       0.0000
     6  O6         0.1624     -1.9361     -0.0562  O       1  LIG       0.0000
     7  C7         0.0784     -2.0426      1.3848  C       1  LIG       0.0000
     8  O8        -0.2672     -0.6568      1.6240  O       1  LIG       0.0000
     9  C9        -0.7959     -0.0081      0.4898  C       1  LIG       0.0000
    10  H10        1.7966      1.6017      0.8140  H       1  LIG       0.0000
    11  H11       -0.8196      2.1085     -0.3514  H       1  LIG       0.0000
    12  H12        0.8604      2.0581     -1.4746  H       1  LIG       0.0000
    13  H13        0.0978      1.2135     -2.7896  H       1  LIG       0.0000
    14  H14       -0.2662     -2.0186      2.4101  H       1  LIG       0.0000
    15  H15        0.5170     -2.9162      0.9889  H       1  LIG       0.0000
    16  H16       -1.8290     -0.2151      0.7078  H       1  LIG       0.0000
@<TRIPOS>BOND
    1     2    11  1
    2     9    16  1
    3     8     9  1
    4     7     8  1
    5     2     9  1
    6     5     9  1
    7     7    14  1
    8     1     2  1
    9     2     3  1
   10     1    10  1
   11     7    15  1
   12     6     7  1
   13     3    12  1
   14     3    13  1
   15     3     4  1
   16     5     6  1
   17     4     5  1
