@<TRIPOS>MOLECULE
generated_molecule
17 18 0 0 0
SMALL
NO_CHARGES

@<TRIPOS>ATOM
     1  C1         1.6957      0.2256     -0.6908  C       1  LIG       0.0000
     2  N2         0.3580      0.7273     -0.2997  N       1  LIG       0.0000
     3  C3        -0.0056      0.0990     -1.6264  C       1  LIG       0.0000
     4  C4        -1.0961     -0.2059     -0.6741  C       1  LIG       0.0000
     5  O5        -1.1998     -0.6155      0.6113  O       1  LIG       0.0000
     6  C6        -0.9805     -0.0129      1.7738  C       1  LIG       0.0000
     7  C7        -0.0705     -0.9262      2.5531  C       1  LIG       0.0000
     8  N8         0.6243     -1.7164      3.0528  N       1  LIG       0.0000
     9  C9        -0.8169      0.7659      0.4856  C       1  LIG       0.0000
    10  H10        2.3016      1.0845     -0.4916  H       1  LIG       0.0000
    11  H11        1.9404     -0.7229     -0.2151  H       1  LIG       0.0000
    12  H12        1.7292     -0.1238     -1.7706  H       1  LIG       0.0000
    13  H13        0.9900      0.2871     -2.0785  H       1  LIG       0.0000
    14  H14       -0.5857     -0.2956     -2.4776  H       1  LIG       0.0000
    15  H15       -1.8103     -0.6719     -1.3021  H       1  LIG       0.0000
    16  H16       -1.6533      0.4400      2.5556  H       1  LIG       0.0000
    17  H17       -1.4206      1.6616      0.5942  H       1  LIG       0.0000
@<TRIPOS>BOND
    1     7     8  3
    2     1    11  1
    3     3    14  1
    4     6     7  1
    5     1     2  1
    6     1    10  1
    7     1    12  1
    8     2     3  1
    9     2     9  1
   10     3    13  1
   11     3     4  1
   12     5     6  1
   13     4     5  1
   14     6     9  1
   15     6    16  1
   16     4     9  1
   17     4    15  1
   18     9    17  1
