@<TRIPOS>MOLECULE
generated_molecule
15 17 0 0 0
SMALL
NO_CHARGES

@<TRIPOS>ATOM
     1  O1        -0.5250      0.7766     -2.0365  O       1  LIG       0.0000
     2  C2        -0.1992      0.6858     -0.8101  C       1  LIG       0.0000
     3  C3         0.7484      1.4330      0.2265  C       1  LIG       0.0000
     4  O4         0.8517      0.3400      1.1389  O       1  LIG       0.0000
     5  C5         0.3593     -0.9996      1.2509  C       1  LIG       0.0000
     6  C6         0.0509      0.2241      0.5370  C       1  LIG       0.0000
     7  C7        -0.8575     -0.6377     -0.4540  C       1  LIG       0.0000
     8  C8        -0.5493     -1.8699      0.3804  C       1  LIG       0.0000
     9  O9        -0.9695     -3.0569      0.2634  O       1  LIG       0.0000
    10  H10       -0.4136      0.8795     -2.9538  H       1  LIG       0.0000
    11  H11        0.2243      2.3515     -0.0551  H       1  LIG       0.0000
    12  H12        1.7561      1.5333      0.5289  H       1  LIG       0.0000
    13  H13        0.6328     -1.7165      1.9911  H       1  LIG       0.0000
    14  H14        0.5327      0.9220      1.1474  H       1  LIG       0.0000
    15  H15       -1.6419     -0.8651     -1.1550  H       1  LIG       0.0000
@<TRIPOS>BOND
    1     3    11  1
    2     3     4  1
    3     4     5  1
    4     3    12  1
    5     2     3  1
    6     5    13  1
    7     5     6  1
    8     5     8  1
    9     6    14  1
   10     1     2  1
   11     2     6  1
   12     2     7  1
   13     1    10  1
   14     6     7  1
   15     7     8  1
   16     8     9  2
   17     7    15  1
