@<TRIPOS>MOLECULE
generated_molecule
20 21 0 0 0
SMALL
NO_CHARGES

@<TRIPOS>ATOM
     1  C1         0.7259     -0.9349     -2.1112  C       1  LIG       0.0000
     2  C2         1.4076      0.1731     -1.2452  C       1  LIG       0.0000
     3  C3         0.3618      0.1735     -0.1110  C       1  LIG       0.0000
     4  C4        -0.2994     -0.9342     -1.0062  C       1  LIG       0.0000
     5  C5         0.1046      1.4098      0.8130  C       1  LIG       0.0000
     6  C6        -1.0013      1.1289      1.9178  C       1  LIG       0.0000
     7  C7        -1.1665     -0.3026      1.6662  C       1  LIG       0.0000
     8  C8        -0.2591     -0.8175      0.8284  C       1  LIG       0.0000
     9  H9         1.4927     -1.7143     -2.2901  H       1  LIG       0.0000
    10  H10        0.2290     -0.7276     -3.0751  H       1  LIG       0.0000
    11  H11        1.9220      0.0130     -2.1804  H       1  LIG       0.0000
    12  H12        1.9873      0.8657     -0.6359  H       1  LIG       0.0000
    13  H13       -1.1704     -0.9679     -1.6636  H       1  LIG       0.0000
    14  H14       -0.4798     -1.5265     -0.1242  H       1  LIG       0.0000
    15  H15        0.2121      2.0091      1.7192  H       1  LIG       0.0000
    16  H16        0.4957      1.9513     -0.0610  H       1  LIG       0.0000
    17  H17       -1.7887      0.8090      2.5982  H       1  LIG       0.0000
    18  H18       -0.8649      2.2364      2.1986  H       1  LIG       0.0000
    19  H19       -1.9018     -0.9823      2.0047  H       1  LIG       0.0000
    20  H20       -0.0068     -1.8618      0.7578  H       1  LIG       0.0000
@<TRIPOS>BOND
    1     4    14  1
    2     1    10  1
    3     2    11  1
    4     5    16  1
    5     5    15  1
    6     1     4  1
    7     1     2  1
    8     1     9  1
    9     4    13  1
   10     3     4  1
   11     2     3  1
   12     2    12  1
   13     3     5  1
   14     5     6  1
   15     3     8  1
   16     6    18  1
   17     6    17  1
   18     6     7  1
   19     7     8  2
   20     8    20  1
   21     7    19  1
