@<TRIPOS>MOLECULE
generated_molecule
14 13 0 0 0
SMALL
NO_CHARGES

@<TRIPOS>ATOM
     1  O1         1.1509      0.1886     -2.3130  O       1  LIG       0.0000
     2  C2         0.4225     -0.0032     -1.1734  C       1  LIG       0.0000
     3  C3        -0.0561     -1.4123     -0.8665  C       1  LIG       0.0000
     4  C4        -0.2887     -0.6875      0.3405  C       1  LIG       0.0000
     5  C5        -0.4176     -0.0004      1.1665  C       1  LIG       0.0000
     6  C6        -0.6632      1.0613      2.2746  C       1  LIG       0.0000
     7  F7        -1.5191      1.4993      3.0398  F       1  LIG       0.0000
     8  F8         0.5297      0.8960      1.4073  F       1  LIG       0.0000
     9  F9        -1.1777      1.6365      3.2446  F       1  LIG       0.0000
    10  H10        1.6897      0.2511     -3.0747  H       1  LIG       0.0000
    11  H11       -0.4469      0.5854     -1.3475  H       1  LIG       0.0000
    12  H12        1.0547      0.1938     -0.3339  H       1  LIG       0.0000
    13  H13        0.5592     -2.2992     -0.9375  H       1  LIG       0.0000
    14  H14       -0.8375     -1.9093     -1.4268  H       1  LIG       0.0000
@<TRIPOS>BOND
    1     6     8  1
    2     2    11  1
    3     3    14  1
    4     5     6  1
    5     6     7  1
    6     6     9  1
    7     4     5  3
    8     1     2  1
    9     2     3  1
   10     2    12  1
   11     3     4  1
   12     1    10  1
   13     3    13  1
