@<TRIPOS>MOLECULE
generated_molecule
16 16 0 0 0
SMALL
NO_CHARGES

@<TRIPOS>ATOM
     1  O1         2.2653     -1.6818      2.2708  O       1  LIG       0.0000
     2  C2         1.3487     -1.6994      1.3859  C       1  LIG       0.0000
     3  C3         1.5215     -1.5103     -0.0676  C       1  LIG       0.0000
     4  C4         0.3944     -0.3198      0.0076  C       1  LIG       0.0000
     5  C5        -0.6009      0.8245     -0.3541  C       1  LIG       0.0000
     6  N6        -0.3387      1.7053     -1.3152  N       1  LIG       0.0000
     7  N7        -1.4720      2.4146     -1.3417  N       1  LIG       0.0000
     8  N8        -2.3880      1.9731     -0.4506  N       1  LIG       0.0000
     9  C9        -1.8252      0.9675      0.1954  C       1  LIG       0.0000
    10  H10        0.3344     -1.8284      1.6324  H       1  LIG       0.0000
    11  H11        2.4819     -2.1460     -0.1579  H       1  LIG       0.0000
    12  H12        1.5445     -1.6010     -1.1228  H       1  LIG       0.0000
    13  H13       -0.3533      0.0261     -0.4436  H       1  LIG       0.0000
    14  H14        1.0309     -0.6776      0.7599  H       1  LIG       0.0000
    15  H15       -1.6263      3.1139     -1.9852  H       1  LIG       0.0000
    16  H16       -2.3171      0.4394      0.9866  H       1  LIG       0.0000
@<TRIPOS>BOND
    1     9    16  1
    2     8     9  ar
    3     5     9  ar
    4     4    13  1
    5     7     8  ar
    6     4     5  1
    7     5     6  ar
    8     4    14  1
    9     3     4  1
   10     6     7  ar
   11     7    15  1
   12     3    12  1
   13     1     2  2
   14     2     3  1
   15     3    11  1
   16     2    10  1
