@<TRIPOS>MOLECULE
generated_molecule
19 21 0 0 0
SMALL
NO_CHARGES

@<TRIPOS>ATOM
     1  C1         0.4001      1.1862      2.1917  C       1  LIG       0.0000
     2  C2         0.1493      0.5315      0.9123  C       1  LIG       0.0000
     3  C3        -1.2350      0.5655      0.0936  C       1  LIG       0.0000
     4  C4        -0.9134     -0.1016     -1.3469  C       1  LIG       0.0000
     5  C5         0.3945     -1.0665     -1.3322  C       1  LIG       0.0000
     6  O6         0.5473     -2.2689     -1.7524  O       1  LIG       0.0000
     7  C7         1.5028     -0.4045     -0.3676  C       1  LIG       0.0000
     8  O8         1.5363      0.2434      0.9086  O       1  LIG       0.0000
     9  C9        -0.0675     -0.2062     -0.3073  C       1  LIG       0.0000
    10  H10        0.0044      2.2024      2.1313  H       1  LIG       0.0000
    11  H11        1.4892      1.2142      2.3513  H       1  LIG       0.0000
    12  H12       -0.0674      0.6105      2.9879  H       1  LIG       0.0000
    13  H13       -1.5089      0.8096      1.1315  H       1  LIG       0.0000
    14  H14       -2.1094      0.7802     -0.4841  H       1  LIG       0.0000
    15  H15       -0.4456      0.1831     -2.2600  H       1  LIG       0.0000
    16  H16       -2.0178     -0.1829     -1.3930  H       1  LIG       0.0000
    17  H17        0.6737     -3.1837     -1.8465  H       1  LIG       0.0000
    18  H18        2.5127     -0.4506     -0.7503  H       1  LIG       0.0000
    19  H19       -0.8454     -0.4617     -0.8680  H       1  LIG       0.0000
@<TRIPOS>BOND
    1     4    15  1
    2     3    13  1
    3     3     4  1
    4     3    14  1
    5     2     3  1
    6     4    16  1
    7     4     5  1
    8     1    11  1
    9     5     6  1
   10     6    17  1
   11     5     9  1
   12     5     7  1
   13     9    19  1
   14     2     9  1
   15     7     9  1
   16     1     2  1
   17     2     8  1
   18     1    10  1
   19     1    12  1
   20     7     8  1
   21     7    18  1
