@<TRIPOS>MOLECULE
generated_molecule
12 12 0 0 0
SMALL
NO_CHARGES

@<TRIPOS>ATOM
     1  N1         1.4600      1.9303      0.5339  N       1  LIG       0.0000
     2  C2         0.5541      0.8608      0.2531  C       1  LIG       0.0000
     3  C3         0.2744     -0.3862     -0.2686  C       1  LIG       0.0000
     4  O4        -0.8802     -0.8622      0.1678  O       1  LIG       0.0000
     5  C5        -1.4221      0.0654      0.8816  C       1  LIG       0.0000
     6  O6        -2.5329     -0.0866      1.3444  O       1  LIG       0.0000
     7  O7        -0.5391      1.0833      0.9323  O       1  LIG       0.0000
     8  C8         0.2634     -1.4826     -1.1539  C       1  LIG       0.0000
     9  C9        -0.1380     -2.4522     -1.7711  C       1  LIG       0.0000
    10  H10        1.0875      2.6864      1.1617  H       1  LIG       0.0000
    11  H11        2.4557      1.9912      0.2109  H       1  LIG       0.0000
    12  H12       -0.5828     -3.3476     -2.2921  H       1  LIG       0.0000
@<TRIPOS>BOND
    1     1     2  1
    2     1    10  1
    3     1    11  1
    4     2     3  ar
    5     2     7  ar
    6     3     4  ar
    7     3     8  1
    8     4     5  ar
    9     5     6  2
   10     5     7  ar
   11     8     9  3
   12     9    12  1
