@<TRIPOS>MOLECULE
generated_molecule
16 16 0 0 0
SMALL
NO_CHARGES

@<TRIPOS>ATOM
     1  O1        -1.2205     -1.4634      0.5024  O       1  LIG       0.0000
     2  C2        -0.0138     -1.0136      0.9594  C       1  LIG       0.0000
     3  C3        -0.0353      0.5278      0.6700  C       1  LIG       0.0000
     4  N4         0.9801      1.5927      0.8833  N       1  LIG       0.0000
     5  C5         1.1479      1.8160     -0.4815  C       1  LIG       0.0000
     6  O6         1.9478      2.5992     -1.0875  O       1  LIG       0.0000
     7  C7         0.0775      0.8143     -0.8292  C       1  LIG       0.0000
     8  C8        -0.3857     -0.5417     -1.2788  C       1  LIG       0.0000
     9  C9        -0.6709     -1.6389     -1.6578  C       1  LIG       0.0000
    10  H10       -2.1152     -1.2995      0.3813  H       1  LIG       0.0000
    11  H11        0.0253     -1.1540      2.0586  H       1  LIG       0.0000
    12  H12        0.7835     -1.5154      0.4683  H       1  LIG       0.0000
    13  H13       -0.7893      0.7327      1.4401  H       1  LIG       0.0000
    14  H14        1.3217      1.9592      1.7177  H       1  LIG       0.0000
    15  H15       -0.1866      1.2574     -1.7791  H       1  LIG       0.0000
    16  H16       -0.8665     -2.6728     -1.9672  H       1  LIG       0.0000
@<TRIPOS>BOND
    1     5     6  2
    2     4    14  1
    3     4     5  1
    4     5     7  1
    5     3     4  1
    6     2    11  1
    7     1    10  1
    8     1     2  1
    9     2     3  1
   10     2    12  1
   11     3     7  1
   12     3    13  1
   13     7     8  1
   14     7    15  1
   15     8     9  3
   16     9    16  1
