@<TRIPOS>MOLECULE
generated_molecule
19 19 0 0 0
SMALL
NO_CHARGES

@<TRIPOS>ATOM
     1  C1         1.6956      2.3417      0.5391  C       1  LIG       0.0000
     2  C2         0.5547      1.3528      1.0889  C       1  LIG       0.0000
     3  C3         0.1083      0.1480      0.2359  C       1  LIG       0.0000
     4  O4        -1.2389     -0.1189      0.2992  O       1  LIG       0.0000
     5  C5        -2.0797     -0.8418     -0.5094  C       1  LIG       0.0000
     6  C6        -0.8474     -1.4052     -1.1760  C       1  LIG       0.0000
     7  O7        -0.3828     -1.0531     -2.1988  O       1  LIG       0.0000
     8  C8         0.0081     -2.3610     -0.4081  C       1  LIG       0.0000
     9  O9         0.2687     -1.2179      0.3312  O       1  LIG       0.0000
    10  H10        1.8436      3.1670      1.2864  H       1  LIG       0.0000
    11  H11        2.6655      1.8303      0.3514  H       1  LIG       0.0000
    12  H12        1.3034      2.7029     -0.4186  H       1  LIG       0.0000
    13  H13        0.9040      0.9227      2.0228  H       1  LIG       0.0000
    14  H14       -0.2644      2.0379      1.2223  H       1  LIG       0.0000
    15  H15        0.5667      0.3887     -0.7304  H       1  LIG       0.0000
    16  H16       -2.6716     -1.5121     -1.1173  H       1  LIG       0.0000
    17  H17       -2.8057     -0.2669      0.0087  H       1  LIG       0.0000
    18  H18       -0.1098     -3.1159     -1.1445  H       1  LIG       0.0000
    19  H19        0.4815     -2.9991      0.3172  H       1  LIG       0.0000
@<TRIPOS>BOND
    1     1    11  1
    2     2    14  1
    3     2    13  1
    4     1     2  1
    5     1    10  1
    6     1    12  1
    7     2     3  1
    8     3     9  1
    9     8     9  1
   10     3    15  1
   11     3     4  1
   12     8    18  1
   13     8    19  1
   14     6     8  1
   15     4     5  1
   16     5     6  1
   17     6     7  2
   18     5    16  1
   19     5    17  1
