@<TRIPOS>MOLECULE
generated_molecule
18 18 0 0 0
SMALL
NO_CHARGES

@<TRIPOS>ATOM
     1  C1        -0.3615     -1.8156     -1.0798  C       1  LIG       0.0000
     2  N2        -1.2508     -1.5887      0.0602  N       1  LIG       0.0000
     3  C3        -1.0478     -0.2598      0.3224  C       1  LIG       0.0000
     4  C4        -1.5647      0.8785     -0.5147  C       1  LIG       0.0000
     5  C5        -0.2010      1.6341     -0.3100  C       1  LIG       0.0000
     6  C6         0.8523      0.7407      0.4641  C       1  LIG       0.0000
     7  O7        -0.0697     -0.0503      1.2322  O       1  LIG       0.0000
     8  C8         1.7450      0.0760      1.5154  C       1  LIG       0.0000
     9  C9         2.4599     -0.4919      2.3620  C       1  LIG       0.0000
    10  H10        0.0743     -2.7064     -0.8076  H       1  LIG       0.0000
    11  H11        0.4292     -0.9953     -1.2072  H       1  LIG       0.0000
    12  H12       -0.9341     -1.7364     -2.0062  H       1  LIG       0.0000
    13  H13       -2.3858      1.5474     -0.2406  H       1  LIG       0.0000
    14  H14       -1.9387      0.3698     -1.4031  H       1  LIG       0.0000
    15  H15        0.5540      2.3511     -0.0364  H       1  LIG       0.0000
    16  H16       -0.9042      2.0491     -1.0562  H       1  LIG       0.0000
    17  H17        1.4385      1.0140     -0.4038  H       1  LIG       0.0000
    18  H18        3.1053     -1.0162      3.1092  H       1  LIG       0.0000
@<TRIPOS>BOND
    1     9    18  1
    2     8     9  3
    3     6     8  1
    4     4    13  1
    5     1    10  1
    6     1    11  1
    7     6     7  1
    8     6    17  1
    9     5     6  1
   10     3     7  1
   11     1     2  1
   12     1    12  1
   13     2     3  1
   14     3     4  1
   15     4     5  1
   16     4    14  1
   17     5    15  1
   18     5    16  1
