@<TRIPOS>MOLECULE
generated_molecule
17 17 0 0 0
SMALL
NO_CHARGES

@<TRIPOS>ATOM
     1  O1         1.9275      0.7899      0.2650  O       1  LIG       0.0000
     2  C2         0.9509      0.9490     -0.4966  C       1  LIG       0.0000
     3  C3         0.0019      2.1450     -0.4039  C       1  LIG       0.0000
     4  C4        -0.6852      1.1975      0.3148  C       1  LIG       0.0000
     5  C5        -0.9428      0.2886      0.7610  C       1  LIG       0.0000
     6  C6        -0.7069     -1.0531      0.9307  C       1  LIG       0.0000
     7  C7         0.1138     -2.2387      0.3457  C       1  LIG       0.0000
     8  O8         0.7381     -1.1874     -0.3504  O       1  LIG       0.0000
     9  C9        -0.1918     -0.1995     -0.3089  C       1  LIG       0.0000
    10  H10        0.6263      0.2017     -1.1811  H       1  LIG       0.0000
    11  H11        0.3824      3.0624     -0.0550  H       1  LIG       0.0000
    12  H12       -0.6488      2.5965     -1.0984  H       1  LIG       0.0000
    13  H13       -1.1321     -1.4623      1.8558  H       1  LIG       0.0000
    14  H14       -0.7146     -2.9413      0.3914  H       1  LIG       0.0000
    15  H15        1.0439     -2.6444      0.2550  H       1  LIG       0.0000
    16  H16       -0.3034      0.8368      0.0827  H       1  LIG       0.0000
    17  H17       -0.4591     -0.3409     -1.3078  H       1  LIG       0.0000
@<TRIPOS>BOND
    1     9    17  1
    2     6    13  1
    3     8     9  1
    4     6     9  1
    5     9    16  1
    6     7     8  1
    7     7    14  1
    8     6     7  1
    9     5     6  1
   10     7    15  1
   11     4     5  3
   12     2    10  1
   13     3     4  1
   14     1     2  2
   15     2     3  1
   16     3    12  1
   17     3    11  1
