@<TRIPOS>MOLECULE
generated_molecule
17 16 0 0 0
SMALL
NO_CHARGES

@<TRIPOS>ATOM
     1  C1        -2.2340      1.7362      1.3984  C       1  LIG       0.0000
     2  O2        -1.0499      1.0469      1.3047  O       1  LIG       0.0000
     3  C3        -0.2455      0.0107      0.8439  C       1  LIG       0.0000
     4  C4         0.3981     -0.2350     -0.5774  C       1  LIG       0.0000
     5  O5         1.0578      0.6750     -1.3870  O       1  LIG       0.0000
     6  C6         1.6781     -1.0730     -1.0587  C       1  LIG       0.0000
     7  C7         1.6017     -2.5401     -0.8718  C       1  LIG       0.0000
     8  N8         1.5806     -3.7699     -0.8200  N       1  LIG       0.0000
     9  H9        -2.9064      1.2093      0.7057  H       1  LIG       0.0000
    10  H10       -2.5444      1.6805      2.4590  H       1  LIG       0.0000
    11  H11       -2.1812      2.7786      1.0557  H       1  LIG       0.0000
    12  H12        0.1953      0.4130      1.7085  H       1  LIG       0.0000
    13  H13       -0.7079     -0.9363      0.7436  H       1  LIG       0.0000
    14  H14       -0.6255     -0.3548     -0.7948  H       1  LIG       0.0000
    15  H15        1.4985      1.2289     -1.9889  H       1  LIG       0.0000
    16  H16        2.2774     -0.2577     -0.7711  H       1  LIG       0.0000
    17  H17        2.2073     -1.6123     -1.9498  H       1  LIG       0.0000
@<TRIPOS>BOND
    1     1    10  1
    2     5    15  1
    3     4     5  1
    4     1     2  1
    5     1     9  1
    6     1    11  1
    7     2     3  1
    8     4    14  1
    9     3     4  1
   10     4     6  1
   11     3    12  1
   12     3    13  1
   13     7     8  3
   14     6     7  1
   15     6    16  1
   16     6    17  1
