@<TRIPOS>MOLECULE
generated_molecule
18 19 0 0 0
SMALL
NO_CHARGES

@<TRIPOS>ATOM
     1  C1        -1.3967      0.4436      2.3703  C       1  LIG       0.0000
     2  N2        -0.3427      0.5701      1.3619  N       1  LIG       0.0000
     3  C3         0.5412      1.3863      0.7403  C       1  LIG       0.0000
     4  C4         0.8096      0.6305     -0.4010  C       1  LIG       0.0000
     5  C5         1.6322      0.0904     -1.5989  C       1  LIG       0.0000
     6  O6         0.8090      0.0225     -2.7772  O       1  LIG       0.0000
     7  C7        -0.0132     -0.9149     -2.0159  C       1  LIG       0.0000
     8  C8         0.0305     -0.4642     -0.4974  C       1  LIG       0.0000
     9  C9        -0.5837     -0.6012      0.6533  C       1  LIG       0.0000
    10  H10       -2.3383      0.2568      1.7811  H       1  LIG       0.0000
    11  H11       -1.1163     -0.4338      2.9135  H       1  LIG       0.0000
    12  H12       -1.5564      1.2982      3.0063  H       1  LIG       0.0000
    13  H13        0.8664      2.3216      1.1156  H       1  LIG       0.0000
    14  H14        2.5821      0.4577     -1.3897  H       1  LIG       0.0000
    15  H15        1.4690     -1.0012     -1.8038  H       1  LIG       0.0000
    16  H16       -0.9522     -1.3033     -1.7739  H       1  LIG       0.0000
    17  H17        0.5794     -1.3362     -2.7893  H       1  LIG       0.0000
    18  H18       -1.0199     -1.4229      1.1048  H       1  LIG       0.0000
@<TRIPOS>BOND
    1     3    13  1
    2     5    15  1
    3     5    14  1
    4     4     5  1
    5     5     6  1
    6     3     4  ar
    7     2     3  ar
    8     1    11  1
    9     4     8  ar
   10     6     7  1
   11     1     2  1
   12     2     9  ar
   13     1    10  1
   14     1    12  1
   15     8     9  ar
   16     7     8  1
   17     9    18  1
   18     7    16  1
   19     7    17  1
