@<TRIPOS>MOLECULE
generated_molecule
20 21 0 0 0
SMALL
NO_CHARGES

@<TRIPOS>ATOM
     1  C1        -2.0211      0.7789     -0.6280  C       1  LIG       0.0000
     2  C2        -0.8566      0.2625      0.1702  C       1  LIG       0.0000
     3  C3        -0.8867     -0.1222      1.4311  C       1  LIG       0.0000
     4  C4         0.1589     -1.0661      1.9185  C       1  LIG       0.0000
     5  C5         1.1029     -0.9828      0.7013  C       1  LIG       0.0000
     6  C6         1.6765     -0.8884     -0.7169  C       1  LIG       0.0000
     7  C7         0.4771      0.0086     -0.3467  C       1  LIG       0.0000
     8  C8         0.6040      1.1869     -1.3718  C       1  LIG       0.0000
     9  H9        -1.9516      1.8704     -0.6473  H       1  LIG       0.0000
    10  H10       -2.0059      0.3532     -1.6375  H       1  LIG       0.0000
    11  H11       -2.9882      0.4881     -0.1357  H       1  LIG       0.0000
    12  H12       -1.6556      0.2882      2.1008  H       1  LIG       0.0000
    13  H13        0.3348     -2.1494      2.1642  H       1  LIG       0.0000
    14  H14        0.0151     -0.6776      2.9538  H       1  LIG       0.0000
    15  H15        1.9456     -1.5888      1.0935  H       1  LIG       0.0000
    16  H16        2.1695     -0.1864     -1.3620  H       1  LIG       0.0000
    17  H17        1.9468     -1.9515     -0.8245  H       1  LIG       0.0000
    18  H18       -0.3975      1.3695     -1.7318  H       1  LIG       0.0000
    19  H19        1.2618      0.9700     -2.2755  H       1  LIG       0.0000
    20  H20        1.0702      2.0369     -0.8556  H       1  LIG       0.0000
@<TRIPOS>BOND
    1     3    12  1
    2     4    14  1
    3     4    13  1
    4     3     4  1
    5     2     3  2
    6     1    10  1
    7     4     5  1
    8     1     2  1
    9     2     7  1
   10     1    11  1
   11     1     9  1
   12     5     7  1
   13     5    15  1
   14     5     6  1
   15     6    17  1
   16     6     7  1
   17     7     8  1
   18     6    16  1
   19     8    19  1
   20     8    18  1
   21     8    20  1
