@<TRIPOS>MOLECULE
generated_molecule
15 15 0 0 0
SMALL
NO_CHARGES

@<TRIPOS>ATOM
     1  C1         1.8834     -0.6404      1.0655  C       1  LIG       0.0000
     2  C2         1.5255     -1.1493      0.0387  C       1  LIG       0.0000
     3  C3         0.9073     -1.7189     -1.2273  C       1  LIG       0.0000
     4  N4        -0.1457     -0.7939     -1.3894  N       1  LIG       0.0000
     5  C5        -0.5948      0.2646     -0.7827  C       1  LIG       0.0000
     6  C6        -1.6241      0.5498      0.3464  C       1  LIG       0.0000
     7  C7        -0.7054      1.8065      0.6174  C       1  LIG       0.0000
     8  O8        -0.1073      1.5408     -0.6674  O       1  LIG       0.0000
     9  H9         2.1794     -0.2100      1.9729  H       1  LIG       0.0000
    10  H10        1.4312     -1.7547     -2.1569  H       1  LIG       0.0000
    11  H11        0.7406     -2.7751     -0.9870  H       1  LIG       0.0000
    12  H12       -2.6167      0.7987      0.0008  H       1  LIG       0.0000
    13  H13       -1.6647     -0.2150      1.1146  H       1  LIG       0.0000
    14  H14       -1.3325      1.8552      1.5191  H       1  LIG       0.0000
    15  H15        0.1239      2.4417      0.5352  H       1  LIG       0.0000
@<TRIPOS>BOND
    1     7    14  1
    2     6    12  1
    3     6     7  1
    4     7    15  1
    5     7     8  1
    6     6    13  1
    7     5     6  1
    8     5     8  1
    9     1     9  1
   10     4     5  1
   11     1     2  3
   12     3     4  1
   13     2     3  1
   14     3    11  1
   15     3    10  1
