@<TRIPOS>MOLECULE
generated_molecule
18 18 0 0 0
SMALL
NO_CHARGES

@<TRIPOS>ATOM
     1  C1        -1.1679      2.1171      0.5668  C       1  LIG       0.0000
     2  C2        -0.4325      0.8062      1.1595  C       1  LIG       0.0000
     3  C3         0.1265     -0.3836      0.2912  C       1  LIG       0.0000
     4  O4        -0.2771     -0.4670     -1.0494  O       1  LIG       0.0000
     5  C5         0.0640     -0.7911     -2.2133  C       1  LIG       0.0000
     6  C6         0.5048     -1.3480     -0.8945  C       1  LIG       0.0000
     7  O7         1.2913     -1.9071      0.0907  O       1  LIG       0.0000
     8  C8         0.7908     -0.5704      1.5925  C       1  LIG       0.0000
     9  N9         1.3022     -0.7114      2.6354  N       1  LIG       0.0000
    10  H10       -1.5515      2.8285      1.3588  H       1  LIG       0.0000
    11  H11       -2.0469      1.8176     -0.0445  H       1  LIG       0.0000
    12  H12       -0.4094      2.6016     -0.0548  H       1  LIG       0.0000
    13  H13       -1.2118      0.3923      1.8281  H       1  LIG       0.0000
    14  H14        0.3856      1.3037      1.7085  H       1  LIG       0.0000
    15  H15       -0.6136     -1.3553     -2.9055  H       1  LIG       0.0000
    16  H16        0.7439     -0.1599     -2.7947  H       1  LIG       0.0000
    17  H17        0.4610     -1.9642     -1.7753  H       1  LIG       0.0000
    18  H18        2.0407     -2.2090      0.5005  H       1  LIG       0.0000
@<TRIPOS>BOND
    1     8     9  3
    2     3     8  1
    3     6    17  1
    4     5    15  1
    5     5     6  1
    6     3     6  1
    7     6     7  1
    8     4     5  1
    9     5    16  1
   10     3     4  1
   11     2     3  1
   12     7    18  1
   13     1    11  1
   14     2    14  1
   15     1     2  1
   16     2    13  1
   17     1    10  1
   18     1    12  1
