@<TRIPOS>MOLECULE
generated_molecule
22 23 0 0 0
SMALL
NO_CHARGES

@<TRIPOS>ATOM
     1  C1         1.8725      1.0007     -0.0021  C       1  LIG       0.0000
     2  C2         0.5676      0.2139     -0.2324  C       1  LIG       0.0000
     3  C3         0.6453      0.3509      1.3459  C       1  LIG       0.0000
     4  C4        -0.7179      0.3014      2.1116  C       1  LIG       0.0000
     5  C5        -1.5989      0.6130      0.9416  C       1  LIG       0.0000
     6  C6        -1.0879      0.4983     -0.3401  C       1  LIG       0.0000
     7  C7        -0.3923     -0.5892     -1.1063  C       1  LIG       0.0000
     8  C8        -0.9991     -1.7209     -1.9973  C       1  LIG       0.0000
     9  N9         0.4695     -1.5857     -1.7916  N       1  LIG       0.0000
    10  H10        1.7040      1.6938      0.8107  H       1  LIG       0.0000
    11  H11        2.0969      1.5032     -0.9631  H       1  LIG       0.0000
    12  H12        2.6995      0.3405      0.2901  H       1  LIG       0.0000
    13  H13        0.0951     -0.0253     -1.0800  H       1  LIG       0.0000
    14  H14        1.4435      0.9287      0.9310  H       1  LIG       0.0000
    15  H15        0.8561     -0.0443      2.3447  H       1  LIG       0.0000
    16  H16       -1.2917     -0.5481      2.5400  H       1  LIG       0.0000
    17  H17       -0.5238      0.9548      2.9939  H       1  LIG       0.0000
    18  H18       -2.6024      1.0083      1.2201  H       1  LIG       0.0000
    19  H19       -1.2251      1.3983     -0.8382  H       1  LIG       0.0000
    20  H20       -1.1061     -1.7995     -3.0906  H       1  LIG       0.0000
    21  H21       -1.7248     -2.3574     -1.5107  H       1  LIG       0.0000
    22  H22        0.8201     -2.1356     -2.5772  H       1  LIG       0.0000
@<TRIPOS>BOND
    1     3    15  1
    2     4    16  1
    3     4    17  1
    4     3     4  1
    5     4     5  1
    6     3    14  1
    7     2     3  1
    8     1    11  1
    9     2    13  1
   10     1     2  1
   11     2     7  1
   12     1    10  1
   13     1    12  1
   14     5    18  1
   15     5     6  2
   16     6     7  1
   17     6    19  1
   18     7     9  1
   19     7     8  1
   20     9    22  1
   21     8     9  1
   22     8    21  1
   23     8    20  1
