@<TRIPOS>MOLECULE
generated_molecule
17 18 0 0 0
SMALL
NO_CHARGES

@<TRIPOS>ATOM
     1  C1        -0.5119      0.2107      2.1163  C       1  LIG       0.0000
     2  C2        -0.9301      0.1782      0.9904  C       1  LIG       0.0000
     3  C3        -1.3389      0.0970     -0.4573  C       1  LIG       0.0000
     4  C4        -0.5927     -1.1389     -1.0276  C       1  LIG       0.0000
     5  O5         0.2058     -1.4283      0.0349  O       1  LIG       0.0000
     6  C6         0.5537     -0.4405      0.9617  C       1  LIG       0.0000
     7  C7         1.3699      0.5711      0.1604  C       1  LIG       0.0000
     8  C8         1.0078      0.8527     -1.1172  C       1  LIG       0.0000
     9  C9        -0.3184      0.2827     -1.6046  C       1  LIG       0.0000
    10  H10       -0.1002      0.2303      3.1378  H       1  LIG       0.0000
    11  H11       -2.3379      0.3889     -0.7513  H       1  LIG       0.0000
    12  H12       -0.9627     -1.9060     -1.6755  H       1  LIG       0.0000
    13  H13        1.0619      0.1170      1.7525  H       1  LIG       0.0000
    14  H14       -0.3452     -0.9530      1.2759  H       1  LIG       0.0000
    15  H15        2.2524      1.0143      0.5840  H       1  LIG       0.0000
    16  H16        1.6064      1.4464     -1.7427  H       1  LIG       0.0000
    17  H17       -0.6200      0.4772     -2.6377  H       1  LIG       0.0000
@<TRIPOS>BOND
    1     8    16  1
    2     9    17  1
    3     3    11  1
    4     3     9  1
    5     8     9  1
    6     4     9  1
    7     2     3  1
    8     3     4  1
    9     7     8  2
   10     1     2  3
   11     1    10  1
   12     7    15  1
   13     6     7  1
   14     4    12  1
   15     4     5  1
   16     5     6  1
   17     6    13  1
   18     6    14  1
