@<TRIPOS>MOLECULE
generated_molecule
17 18 0 0 0
SMALL
NO_CHARGES

@<TRIPOS>ATOM
     1  O1        -0.4562      0.9574     -1.9240  O       1  LIG       0.0000
     2  C2         0.3486      0.5645     -0.9103  C       1  LIG       0.0000
     3  C3        -0.9795     -0.0346     -0.4258  C       1  LIG       0.0000
     4  C4        -1.2300     -1.3018      0.4468  C       1  LIG       0.0000
     5  N5        -1.6627     -1.3597     -0.9226  N       1  LIG       0.0000
     6  C6         1.2002      0.6304      0.3120  C       1  LIG       0.0000
     7  C7         1.5266      0.4578      1.9284  C       1  LIG       0.0000
     8  O8         0.8320     -0.4890      1.1460  O       1  LIG       0.0000
     9  H9        -0.9685      1.0797     -2.7306  H       1  LIG       0.0000
    10  H10        1.2455      0.7456     -1.4432  H       1  LIG       0.0000
    11  H11       -1.5529      0.8560     -0.2546  H       1  LIG       0.0000
    12  H12       -0.3584     -1.8887      0.7365  H       1  LIG       0.0000
    13  H13       -2.0570     -1.2229      1.0889  H       1  LIG       0.0000
    14  H14       -1.2188     -1.5863     -1.7739  H       1  LIG       0.0000
    15  H15        1.8585      1.3667     -0.0917  H       1  LIG       0.0000
    16  H16        2.3225     -0.1073      2.3807  H       1  LIG       0.0000
    17  H17        1.1502      1.3323      2.4374  H       1  LIG       0.0000
@<TRIPOS>BOND
    1     4    12  1
    2     5    14  1
    3     4     5  1
    4     3     5  1
    5     4    13  1
    6     3     4  1
    7     3    11  1
    8     2     3  1
    9     2    10  1
   10     1     2  1
   11     2     6  1
   12     1     9  1
   13     6     8  1
   14     6    15  1
   15     6     7  1
   16     7     8  1
   17     7    17  1
   18     7    16  1
