@<TRIPOS>MOLECULE
generated_molecule
18 18 0 0 0
SMALL
NO_CHARGES

@<TRIPOS>ATOM
     1  C1        -1.7278      0.5629     -0.4367  C       1  LIG       0.0000
     2  O2        -0.8759     -0.0890      0.4332  O       1  LIG       0.0000
     3  C3         0.1761     -0.5686      0.9683  C       1  LIG       0.0000
     4  C4         0.9051      0.0616     -0.2296  C       1  LIG       0.0000
     5  C5        -0.4705     -0.0405     -0.9524  C       1  LIG       0.0000
     6  O6        -1.2311     -1.2308     -1.0207  O       1  LIG       0.0000
     7  C7         1.6165     -0.1066      1.1601  C       1  LIG       0.0000
     8  C8         2.8909      0.7914      1.0680  C       1  LIG       0.0000
     9  N9         3.8392      1.4462      1.0132  N       1  LIG       0.0000
    10  H10       -2.7402      0.4670     -0.0277  H       1  LIG       0.0000
    11  H11       -1.5590      1.6758     -0.5917  H       1  LIG       0.0000
    12  H12       -1.5177      0.0484     -1.3647  H       1  LIG       0.0000
    13  H13        0.1497     -1.3936      1.6363  H       1  LIG       0.0000
    14  H14        1.7966      0.4123     -0.6937  H       1  LIG       0.0000
    15  H15       -1.1391      0.4945     -0.3108  H       1  LIG       0.0000
    16  H16       -0.1940      0.2342     -1.9333  H       1  LIG       0.0000
    17  H17       -1.6685     -2.0902     -0.8146  H       1  LIG       0.0000
    18  H18        1.7497     -0.6751      2.0968  H       1  LIG       0.0000
@<TRIPOS>BOND
    1     7    18  1
    2     3    13  1
    3     3     7  1
    4     7     8  1
    5     4     7  1
    6     4    14  1
    7     3     4  1
    8     2     3  1
    9     8     9  3
   10     4     5  1
   11     1    10  1
   12     1    11  1
   13     1     2  1
   14     1    12  1
   15     6    17  1
   16     5     6  1
   17     5    15  1
   18     5    16  1
