@<TRIPOS>MOLECULE
generated_molecule
16 15 0 0 0
SMALL
NO_CHARGES

@<TRIPOS>ATOM
     1  O1        -0.5926     -0.2680      1.5156  O       1  LIG       0.0000
     2  C2        -0.7911     -1.4532      0.9376  C       1  LIG       0.0000
     3  C3        -0.1232     -0.7575     -0.0526  C       1  LIG       0.0000
     4  C4         0.3854     -0.0579     -0.5206  C       1  LIG       0.0000
     5  C5         0.9111      1.2298     -0.6088  C       1  LIG       0.0000
     6  C6        -0.3386      0.2111     -0.3334  C       1  LIG       0.0000
     7  O7        -1.1590     -0.7212     -0.7546  O       1  LIG       0.0000
     8  C8         2.2677      1.8098     -0.8292  C       1  LIG       0.0000
     9  N9         3.3136      2.2888     -0.9790  N       1  LIG       0.0000
    10  H10       -0.0349      0.5435      1.4996  H       1  LIG       0.0000
    11  H11       -1.6066     -1.8715      0.4132  H       1  LIG       0.0000
    12  H12       -0.4041     -2.1979      1.6351  H       1  LIG       0.0000
    13  H13        1.1123      2.2341     -0.6035  H       1  LIG       0.0000
    14  H14       -0.6474      1.1472      0.1304  H       1  LIG       0.0000
    15  H15       -0.4232     -0.7385     -0.2954  H       1  LIG       0.0000
    16  H16       -1.8694     -1.3986     -1.1542  H       1  LIG       0.0000
@<TRIPOS>BOND
    1     6    14  1
    2     5    13  1
    3     1    10  1
    4     1     2  1
    5     2    11  1
    6     6     7  1
    7     7    16  1
    8     5     6  1
    9     6    15  1
   10     4     5  1
   11     5     8  1
   12     3     4  3
   13     2     3  1
   14     2    12  1
   15     8     9  3
