@<TRIPOS>MOLECULE
generated_molecule
18 19 0 0 0
SMALL
NO_CHARGES

@<TRIPOS>ATOM
     1  C1        -1.2589     -0.1964     -1.9071  C       1  LIG       0.0000
     2  C2        -0.5196      0.0061     -0.6002  C       1  LIG       0.0000
     3  N3        -1.1948      0.9239      0.2562  N       1  LIG       0.0000
     4  C4        -0.7562      0.7823      1.6140  C       1  LIG       0.0000
     5  N5        -0.9222      1.3838      2.9393  N       1  LIG       0.0000
     6  O6         0.0344     -0.3372      1.6796  O       1  LIG       0.0000
     7  C7         0.3280     -0.8741      0.4310  C       1  LIG       0.0000
     8  C8         0.9566     -0.3697     -0.9447  C       1  LIG       0.0000
     9  N9         2.4107     -0.4679     -0.7884  N       1  LIG       0.0000
    10  H10       -0.5599     -0.0998     -2.7536  H       1  LIG       0.0000
    11  H11       -1.6702     -1.2023     -1.9227  H       1  LIG       0.0000
    12  H12       -2.0227      0.5669     -1.9214  H       1  LIG       0.0000
    13  H13       -0.1504      1.8937      3.3969  H       1  LIG       0.0000
    14  H14       -1.7343      1.0934      3.2636  H       1  LIG       0.0000
    15  H15        0.4698     -1.8503      0.7306  H       1  LIG       0.0000
    16  H16        0.9010     -0.2330     -1.9793  H       1  LIG       0.0000
    17  H17        2.9860      0.3159     -0.4493  H       1  LIG       0.0000
    18  H18        2.7025     -1.3351     -1.0444  H       1  LIG       0.0000
@<TRIPOS>BOND
    1     9    18  1
    2     9    17  1
    3     8     9  1
    4     1    11  1
    5     8    16  1
    6     2     8  1
    7     7     8  1
    8     2     3  1
    9     3     4  1
   10     1     2  1
   11     1    10  1
   12     1    12  1
   13     2     7  1
   14     5    13  1
   15     4     5  1
   16     4     6  1
   17     5    14  1
   18     6     7  1
   19     7    15  1
