@<TRIPOS>MOLECULE
generated_molecule
13 13 0 0 0
SMALL
NO_CHARGES

@<TRIPOS>ATOM
     1  O1        -0.1920      1.7136     -1.6139  O       1  LIG       0.0000
     2  C2        -0.1645      1.7241     -0.3546  C       1  LIG       0.0000
     3  C3         0.3485      0.5634      0.5185  C       1  LIG       0.0000
     4  C4         0.2203     -0.9791      0.4021  C       1  LIG       0.0000
     5  O5         1.5236     -0.6671     -0.0348  O       1  LIG       0.0000
     6  C6         1.8317      0.6473      0.0841  C       1  LIG       0.0000
     7  O7         2.7717      1.4321     -0.0183  O       1  LIG       0.0000
     8  C8        -1.0749     -1.5001     -0.1783  C       1  LIG       0.0000
     9  C9        -2.1111     -1.9478     -0.6282  C       1  LIG       0.0000
    10  H10       -0.4768      2.6004      0.1921  H       1  LIG       0.0000
    11  H11        0.0257      0.5863      1.5724  H       1  LIG       0.0000
    12  H12        0.3371     -1.8097      1.0892  H       1  LIG       0.0000
    13  H13       -3.0393     -2.3634     -1.0302  H       1  LIG       0.0000
@<TRIPOS>BOND
    1     9    13  1
    2     8     9  3
    3     4    12  1
    4     4     8  1
    5     4     5  1
    6     3     4  1
    7     1     2  2
    8     5     6  1
    9     2     3  1
   10     2    10  1
   11     3    11  1
   12     3     6  1
   13     6     7  2
