@<TRIPOS>MOLECULE
generated_molecule
13 13 0 0 0
SMALL
NO_CHARGES

@<TRIPOS>ATOM
     1  C1        -0.8638      1.2169      1.5657  C       1  LIG       0.0000
     2  C2         0.5225      0.7084      0.8567  C       1  LIG       0.0000
     3  O3         1.2784      1.1497      1.7421  O       1  LIG       0.0000
     4  C4         0.7680     -0.0295     -0.4708  C       1  LIG       0.0000
     5  C5         0.1356     -1.1149     -1.0964  C       1  LIG       0.0000
     6  O6        -0.6903     -1.9081     -0.6161  O       1  LIG       0.0000
     7  N7         0.5895     -1.4519     -2.4391  N       1  LIG       0.0000
     8  N8         1.6121     -0.5340     -2.6923  N       1  LIG       0.0000
     9  O9         1.6520      0.2603     -1.4796  O       1  LIG       0.0000
    10  H10       -1.4376      0.3513      1.8766  H       1  LIG       0.0000
    11  H11       -1.4031      1.8349      0.8762  H       1  LIG       0.0000
    12  H12       -0.6903      1.8734      2.5505  H       1  LIG       0.0000
    13  H13       -1.4730     -2.3565     -0.6734  H       1  LIG       0.0000
@<TRIPOS>BOND
    1     7     8  ar
    2     8     9  ar
    3     5     7  ar
    4     4     9  ar
    5     4     5  ar
    6     5     6  1
    7     2     4  1
    8     6    13  1
    9     1    11  1
   10     1    10  1
   11     1     2  1
   12     2     3  2
   13     1    12  1
