@<TRIPOS>MOLECULE
generated_molecule
23 23 0 0 0
SMALL
NO_CHARGES

@<TRIPOS>ATOM
     1  C1         0.2434      2.6252      0.2947  C       1  LIG       0.0000
     2  C2         0.1517      1.4197     -0.6566  C       1  LIG       0.0000
     3  C3        -1.1265      0.6239     -0.7660  C       1  LIG       0.0000
     4  C4        -2.4269      0.4003     -0.0222  C       1  LIG       0.0000
     5  C5         0.1493     -0.1126     -0.2544  C       1  LIG       0.0000
     6  C6         1.3765     -0.8649      0.2305  C       1  LIG       0.0000
     7  C7         0.0144     -1.5586      0.1063  C       1  LIG       0.0000
     8  C8         1.3210     -2.3487      0.2900  C       1  LIG       0.0000
     9  O9        -1.0950     -1.9698      0.2353  O       1  LIG       0.0000
    10  H10        0.2081      2.2753      1.3116  H       1  LIG       0.0000
    11  H11        1.1863      3.1575      0.0598  H       1  LIG       0.0000
    12  H12       -0.6569      3.2724      0.1259  H       1  LIG       0.0000
    13  H13        0.5084      1.7014     -1.6438  H       1  LIG       0.0000
    14  H14       -1.4696      0.9572     -1.7408  H       1  LIG       0.0000
    15  H15       -3.2997      0.6158     -0.7163  H       1  LIG       0.0000
    16  H16       -2.3683     -0.5954      0.2780  H       1  LIG       0.0000
    17  H17       -2.5416      1.0969      0.8331  H       1  LIG       0.0000
    18  H18        0.9697     -1.5871      0.9140  H       1  LIG       0.0000
    19  H19        2.0941     -0.1981      0.7311  H       1  LIG       0.0000
    20  H20        1.9135     -1.3679     -0.6032  H       1  LIG       0.0000
    21  H21        1.1552     -3.3047     -0.2006  H       1  LIG       0.0000
    22  H22        1.4961     -2.3745      1.3664  H       1  LIG       0.0000
    23  H23        2.1969     -1.8634     -0.1725  H       1  LIG       0.0000
@<TRIPOS>BOND
    1     1    11  1
    2     1    12  1
    3     1    10  1
    4     1     2  1
    5     4    17  1
    6     2    13  1
    7     2     3  1
    8     2     5  1
    9     4    15  1
   10     3     4  1
   11     4    16  1
   12     3    14  1
   13     3     5  1
   14     6    18  1
   15     5     6  1
   16     5     7  1
   17     7     9  2
   18     6    19  1
   19     6    20  1
   20     7     8  1
   21     8    21  1
   22     8    22  1
   23     8    23  1
