@<TRIPOS>MOLECULE
generated_molecule
25 25 0 0 0
SMALL
NO_CHARGES

@<TRIPOS>ATOM
     1  C1        -0.4605      1.9298      1.7674  C       1  LIG       0.0000
     2  C2        -1.0574      1.7134      0.3743  C       1  LIG       0.0000
     3  C3        -0.6904      0.2817     -0.0263  C       1  LIG       0.0000
     4  C4         0.3051      0.4042     -0.9322  C       1  LIG       0.0000
     5  C5         0.8102      1.5101     -1.9622  C       1  LIG       0.0000
     6  C6         1.2439     -0.8699     -1.0284  C       1  LIG       0.0000
     7  C7         0.7941     -2.1886     -0.3100  C       1  LIG       0.0000
     8  C8        -0.1795     -2.3334      0.9450  C       1  LIG       0.0000
     9  C9        -1.1821     -1.0893      0.6501  C       1  LIG       0.0000
    10  H10        0.1066      1.1049      1.9349  H       1  LIG       0.0000
    11  H11        0.1732      2.8684      1.8133  H       1  LIG       0.0000
    12  H12       -1.3326      2.0532      2.4808  H       1  LIG       0.0000
    13  H13       -2.0500      2.1422      0.2848  H       1  LIG       0.0000
    14  H14       -0.8660      2.3822     -0.4508  H       1  LIG       0.0000
    15  H15        1.1712      1.0464     -2.9570  H       1  LIG       0.0000
    16  H16       -0.0178      2.2001     -2.1531  H       1  LIG       0.0000
    17  H17        1.7178      2.0339     -1.5658  H       1  LIG       0.0000
    18  H18        1.6822     -1.6027     -1.7109  H       1  LIG       0.0000
    19  H19        1.7871      0.0698     -0.9991  H       1  LIG       0.0000
    20  H20        1.1130     -3.1132      0.2998  H       1  LIG       0.0000
    21  H21        0.9086     -2.2127     -1.3156  H       1  LIG       0.0000
    22  H22       -0.8647     -2.8968      1.7135  H       1  LIG       0.0000
    23  H23        0.5988     -2.9686      1.4605  H       1  LIG       0.0000
    24  H24       -2.0354     -1.2594     -0.0038  H       1  LIG       0.0000
    25  H25       -1.6756     -1.2056      1.6909  H       1  LIG       0.0000
@<TRIPOS>BOND
    1     5    16  1
    2     5    15  1
    3     5    17  1
    4     4     5  1
    5     6    19  1
    6     6    18  1
    7     4     6  1
    8     6     7  1
    9     3     4  2
   10     1    11  1
   11     2    13  1
   12     2     3  1
   13     3     9  1
   14     7    20  1
   15     7    21  1
   16     7     8  1
   17     1     2  1
   18     2    14  1
   19     1    10  1
   20     1    12  1
   21     8    22  1
   22     8     9  1
   23     8    23  1
   24     9    24  1
   25     9    25  1
