@<TRIPOS>MOLECULE
generated_molecule
16 16 0 0 0
SMALL
NO_CHARGES

@<TRIPOS>ATOM
     1  C1         2.0689     -0.9446      0.4870  C       1  LIG       0.0000
     2  C2         1.0286     -0.0231      0.2889  C       1  LIG       0.0000
     3  N3         0.4422     -0.4317     -0.8265  N       1  LIG       0.0000
     4  C4        -0.7187      0.1841     -0.6698  C       1  LIG       0.0000
     5  C5        -1.5382     -0.5042     -1.6565  C       1  LIG       0.0000
     6  C6        -0.7984      1.0172      0.4512  C       1  LIG       0.0000
     7  O7        -1.6246      1.8464      1.0974  O       1  LIG       0.0000
     8  N8         0.3894      0.9000      1.1099  N       1  LIG       0.0000
     9  H9         1.6211     -1.9548      0.3531  H       1  LIG       0.0000
    10  H10        2.7615     -0.8215     -0.3084  H       1  LIG       0.0000
    11  H11        2.4298     -0.8250      1.4746  H       1  LIG       0.0000
    12  H12       -1.9368     -1.3789     -1.1321  H       1  LIG       0.0000
    13  H13       -2.2841      0.0981     -2.1070  H       1  LIG       0.0000
    14  H14       -0.8324     -0.9242     -2.4275  H       1  LIG       0.0000
    15  H15       -1.7041      2.3456      1.9167  H       1  LIG       0.0000
    16  H16        0.6957      1.4168      1.9490  H       1  LIG       0.0000
@<TRIPOS>BOND
    1     5    14  1
    2     5    13  1
    3     5    12  1
    4     4     5  1
    5     3     4  ar
    6     2     3  ar
    7     1    10  1
    8     4     6  ar
    9     1     2  1
   10     2     8  ar
   11     1     9  1
   12     1    11  1
   13     6     8  ar
   14     6     7  1
   15     8    16  1
   16     7    15  1
