@<TRIPOS>MOLECULE
generated_molecule
14 14 0 0 0
SMALL
NO_CHARGES

@<TRIPOS>ATOM
     1  C1        -1.5997      1.5849      0.6296  C       1  LIG       0.0000
     2  O2        -0.6469      0.4501      0.8836  O       1  LIG       0.0000
     3  C3         0.2414     -0.4651      0.5897  C       1  LIG       0.0000
     4  C4         0.6593     -0.2955     -0.6742  C       1  LIG       0.0000
     5  O5         0.8200      0.8590     -1.2351  O       1  LIG       0.0000
     6  N6         1.1818     -1.4823     -1.1080  N       1  LIG       0.0000
     7  N7         1.2519     -2.3777     -0.1101  N       1  LIG       0.0000
     8  C8         0.7057     -1.7392      0.9565  C       1  LIG       0.0000
     9  H9        -1.4703      2.0375     -0.4087  H       1  LIG       0.0000
    10  H10       -2.6813      1.2486      0.5934  H       1  LIG       0.0000
    11  H11       -1.3674      2.3272      1.4556  H       1  LIG       0.0000
    12  H12        0.6619      1.7685     -1.3688  H       1  LIG       0.0000
    13  H13        1.3877     -1.6219     -2.0337  H       1  LIG       0.0000
    14  H14        0.8558     -2.2940      1.8303  H       1  LIG       0.0000
@<TRIPOS>BOND
    1     1    10  1
    2     5    12  1
    3     1     2  1
    4     2     3  1
    5     1     9  1
    6     1    11  1
    7     4     5  1
    8     3     4  ar
    9     3     8  ar
   10     4     6  ar
   11     8    14  1
   12     7     8  ar
   13     6    13  1
   14     6     7  ar
