@<TRIPOS>MOLECULE
generated_molecule
21 20 0 0 0
SMALL
NO_CHARGES

@<TRIPOS>ATOM
     1  C1         0.1305      2.0096      2.6740  C       1  LIG       0.0000
     2  C2        -0.4795      1.5418      1.3519  C       1  LIG       0.0000
     3  C3        -0.9202      1.2500      0.2785  C       1  LIG       0.0000
     4  C4        -1.3565      0.9390     -1.1242  C       1  LIG       0.0000
     5  C5        -0.7076     -0.1757     -1.9709  C       1  LIG       0.0000
     6  C6         0.4447     -0.1875     -0.9151  C       1  LIG       0.0000
     7  C7         1.4706     -1.0906     -0.1092  C       1  LIG       0.0000
     8  C8         0.7601     -2.4125      0.0675  C       1  LIG       0.0000
     9  C9         0.1873     -3.4881      0.1859  C       1  LIG       0.0000
    10  H10       -0.6387      2.5082      3.3205  H       1  LIG       0.0000
    11  H11        0.8480      2.7144      2.2559  H       1  LIG       0.0000
    12  H12        0.6047      1.1964      3.2788  H       1  LIG       0.0000
    13  H13       -2.3796      0.9371     -0.7640  H       1  LIG       0.0000
    14  H14       -1.0991      1.5911     -1.9401  H       1  LIG       0.0000
    15  H15       -0.2957     -0.3550     -2.9541  H       1  LIG       0.0000
    16  H16       -1.4090     -0.9165     -2.3954  H       1  LIG       0.0000
    17  H17       -0.5240      0.1125     -0.8128  H       1  LIG       0.0000
    18  H18        1.4394      0.2207     -0.9343  H       1  LIG       0.0000
    19  H19        1.8348     -0.2428      0.3342  H       1  LIG       0.0000
    20  H20        2.4256     -1.7148     -0.0953  H       1  LIG       0.0000
    21  H21       -0.3357     -4.4371      0.2682  H       1  LIG       0.0000
@<TRIPOS>BOND
    1     4    13  1
    2     6    17  1
    3     5    16  1
    4     7    20  1
    5     1    11  1
    6     9    21  1
    7     8     9  3
    8     3     4  1
    9     4     5  1
   10     4    14  1
   11     5     6  1
   12     6     7  1
   13     6    18  1
   14     7     8  1
   15     2     3  3
   16     5    15  1
   17     7    19  1
   18     1     2  1
   19     1    10  1
   20     1    12  1
