@<TRIPOS>MOLECULE
generated_molecule
17 16 0 0 0
SMALL
NO_CHARGES

@<TRIPOS>ATOM
     1  C1         2.6927      0.5656     -0.9555  C       1  LIG       0.0000
     2  C2         1.7139     -0.2430     -1.0626  C       1  LIG       0.0000
     3  C3         0.5724     -1.2162     -1.1961  C       1  LIG       0.0000
     4  C4        -0.5992     -1.3719     -0.0791  C       1  LIG       0.0000
     5  C5        -1.2109     -0.1971      0.7944  C       1  LIG       0.0000
     6  C6        -1.3867      0.9074     -0.2166  C       1  LIG       0.0000
     7  C7        -1.4675      1.7677     -1.0707  C       1  LIG       0.0000
     8  C8        -0.5622      0.5744      1.9426  C       1  LIG       0.0000
     9  C9         0.0092      1.1520      2.8751  C       1  LIG       0.0000
    10  H10        3.5309      1.2525     -0.8630  H       1  LIG       0.0000
    11  H11        1.4854     -1.0928     -1.7894  H       1  LIG       0.0000
    12  H12       -0.1760     -1.8306     -1.6414  H       1  LIG       0.0000
    13  H13       -0.9363     -1.5684      0.8932  H       1  LIG       0.0000
    14  H14       -0.7225     -2.2083     -0.8151  H       1  LIG       0.0000
    15  H15       -1.9887     -0.6810      1.3617  H       1  LIG       0.0000
    16  H16       -1.4969      2.5299     -1.8571  H       1  LIG       0.0000
    17  H17        0.5425      1.6597      3.6794  H       1  LIG       0.0000
@<TRIPOS>BOND
    1     4    14  1
    2     5    15  1
    3     3    11  1
    4     9    17  1
    5     8     9  3
    6     5     8  1
    7     1    10  1
    8     1     2  3
    9     2     3  1
   10     3     4  1
   11     4     5  1
   12     4    13  1
   13     3    12  1
   14     5     6  1
   15     6     7  3
   16     7    16  1
