@<TRIPOS>MOLECULE
generated_molecule
14 15 0 0 0
SMALL
NO_CHARGES

@<TRIPOS>ATOM
     1  N1         0.3951     -1.9213     -1.0635  N       1  LIG       0.0000
     2  C2        -0.1713     -0.9641     -0.3822  C       1  LIG       0.0000
     3  N3        -1.3541     -0.6897      0.1423  N       1  LIG       0.0000
     4  C4        -0.9123      0.5465      0.7195  C       1  LIG       0.0000
     5  C5        -1.7243      1.8191      0.4641  C       1  LIG       0.0000
     6  N6        -2.4026      2.7768      0.3159  N       1  LIG       0.0000
     7  C7         0.3709      0.3266      0.0480  C       1  LIG       0.0000
     8  C8         1.9627      0.2083     -0.2708  C       1  LIG       0.0000
     9  O9         1.2941      1.4168     -0.1357  O       1  LIG       0.0000
    10  H10        0.8340     -2.7719     -0.9874  H       1  LIG       0.0000
    11  H11       -2.2224     -1.0638      0.0391  H       1  LIG       0.0000
    12  H12       -0.9234      0.5152      1.8157  H       1  LIG       0.0000
    13  H13        2.0566     -0.4811     -1.1136  H       1  LIG       0.0000
    14  H14        2.7970      0.2827      0.4085  H       1  LIG       0.0000
@<TRIPOS>BOND
    1     1    10  1
    2     1     2  1
    3     7     9  1
    4     8     9  1
    5     2     7  1
    6     2     3  1
    7     4    12  1
    8     7     8  1
    9     4     7  1
   10     3    11  1
   11     8    14  1
   12     3     4  1
   13     8    13  1
   14     4     5  1
   15     5     6  3
