@<TRIPOS>MOLECULE
generated_molecule
20 22 0 0 0
SMALL
NO_CHARGES

@<TRIPOS>ATOM
     1  C1        -1.8051      1.6831      0.4621  C       1  LIG       0.0000
     2  C2        -0.7842      0.6798     -0.0174  C       1  LIG       0.0000
     3  C3        -0.3649      0.6960      1.4384  C       1  LIG       0.0000
     4  N4         0.3720     -0.3894      0.9203  N       1  LIG       0.0000
     5  C5         1.2645     -1.5263      0.7980  C       1  LIG       0.0000
     6  C6         1.3686     -1.2015     -0.6921  C       1  LIG       0.0000
     7  C7         0.5266     -0.5663     -1.8636  C       1  LIG       0.0000
     8  O8        -0.5759      0.1101     -1.2666  O       1  LIG       0.0000
     9  C9         0.2405     -0.2515     -0.5544  C       1  LIG       0.0000
    10  H10       -1.9803      1.5620      1.5498  H       1  LIG       0.0000
    11  H11       -2.7650      1.5193     -0.0418  H       1  LIG       0.0000
    12  H12       -1.3798      2.6668      0.2619  H       1  LIG       0.0000
    13  H13       -1.3187      1.0908      1.7457  H       1  LIG       0.0000
    14  H14        0.4182      0.9570      2.1461  H       1  LIG       0.0000
    15  H15        1.4189     -2.5674      0.5478  H       1  LIG       0.0000
    16  H16        1.5397     -1.3482      1.8417  H       1  LIG       0.0000
    17  H17        2.3345     -1.7022     -0.9106  H       1  LIG       0.0000
    18  H18        1.1006      0.2279     -2.3249  H       1  LIG       0.0000
    19  H19        0.2054     -1.4118     -2.4040  H       1  LIG       0.0000
    20  H20        0.1845     -0.2280     -1.6365  H       1  LIG       0.0000
@<TRIPOS>BOND
    1     3    13  1
    2     3    14  1
    3     3     4  1
    4     2     3  1
    5     4     5  1
    6     4     9  1
    7     5    15  1
    8     1    11  1
    9     5    16  1
   10     5     6  1
   11     9    20  1
   12     2     9  1
   13     6     9  1
   14     1     2  1
   15     2     8  1
   16     1    10  1
   17     1    12  1
   18     6    17  1
   19     6     7  1
   20     7     8  1
   21     7    19  1
   22     7    18  1
