@<TRIPOS>MOLECULE
generated_molecule
19 20 0 0 0
SMALL
NO_CHARGES

@<TRIPOS>ATOM
     1  O1        -1.4069      0.5073     -1.8424  O       1  LIG       0.0000
     2  C2        -0.2402      0.4900     -1.1455  C       1  LIG       0.0000
     3  C3         1.2022      0.5478     -1.7108  C       1  LIG       0.0000
     4  C4         0.6526      1.6862     -0.8539  C       1  LIG       0.0000
     5  C5        -0.5283      1.4816      0.1451  C       1  LIG       0.0000
     6  C6        -0.8451     -0.0655      0.1141  C       1  LIG       0.0000
     7  C7        -0.2556     -1.4459      0.7981  C       1  LIG       0.0000
     8  C8         0.4331     -1.9893      2.1052  C       1  LIG       0.0000
     9  C9         0.9912     -2.4199      3.2121  C       1  LIG       0.0000
    10  H10       -2.1909      0.9086     -2.2388  H       1  LIG       0.0000
    11  H11        1.8133     -0.2474     -1.3024  H       1  LIG       0.0000
    12  H12        1.4635      0.9674     -2.6876  H       1  LIG       0.0000
    13  H13        1.3744      2.4743     -1.0409  H       1  LIG       0.0000
    14  H14       -0.4139      1.6594      1.1998  H       1  LIG       0.0000
    15  H15       -1.0835      2.2418     -0.3859  H       1  LIG       0.0000
    16  H16       -1.8965     -0.3591      0.2483  H       1  LIG       0.0000
    17  H17       -0.5633     -2.2745      1.4477  H       1  LIG       0.0000
    18  H18        0.0132     -1.3792     -0.2012  H       1  LIG       0.0000
    19  H19        1.4808     -2.7835      4.1390  H       1  LIG       0.0000
@<TRIPOS>BOND
    1     3    11  1
    2     3    12  1
    3     2     3  1
    4     3     4  1
    5     1    10  1
    6     7    17  1
    7     1     2  1
    8     2     4  1
    9     2     6  1
   10     4    13  1
   11     4     5  1
   12     7    18  1
   13     5    15  1
   14     6     7  1
   15     7     8  1
   16     5     6  1
   17     6    16  1
   18     5    14  1
   19     8     9  3
   20     9    19  1
