@<TRIPOS>MOLECULE
generated_molecule
19 21 0 0 0
SMALL
NO_CHARGES

@<TRIPOS>ATOM
     1  O1         0.3704      1.2248      1.5871  O       1  LIG       0.0000
     2  C2         0.4426      1.6173      0.3822  C       1  LIG       0.0000
     3  C3         0.2778      0.6547     -0.7869  C       1  LIG       0.0000
     4  C4         0.3643      0.4172     -2.2916  C       1  LIG       0.0000
     5  C5         1.0388     -0.5330     -1.3074  C       1  LIG       0.0000
     6  C6         0.5811     -0.6213      0.1587  C       1  LIG       0.0000
     7  C7        -0.2142     -1.3263      1.2720  C       1  LIG       0.0000
     8  C8        -1.2828     -0.3074      1.4345  C       1  LIG       0.0000
     9  C9        -0.7383      0.2004      0.1510  C       1  LIG       0.0000
    10  H10        0.6219      2.6463      0.1275  H       1  LIG       0.0000
    11  H11       -0.1739      1.3166     -2.5920  H       1  LIG       0.0000
    12  H12        0.6573     -0.2871     -3.0583  H       1  LIG       0.0000
    13  H13        1.6794     -1.1286     -1.9248  H       1  LIG       0.0000
    14  H14        1.6425     -0.6882      0.4495  H       1  LIG       0.0000
    15  H15        0.7928     -1.7490      1.4532  H       1  LIG       0.0000
    16  H16       -1.0131     -1.9395      1.6310  H       1  LIG       0.0000
    17  H17       -1.3127      0.5847      2.0581  H       1  LIG       0.0000
    18  H18       -2.2264     -0.8323      1.6105  H       1  LIG       0.0000
    19  H19       -1.5074      0.7508     -0.3545  H       1  LIG       0.0000
@<TRIPOS>BOND
    1     6    14  1
    2     5    13  1
    3     5     6  1
    4     6     7  1
    5     6     9  1
    6     3     5  1
    7     4     5  1
    8     7    15  1
    9     9    19  1
   10     2    10  1
   11     2     3  1
   12     1     2  2
   13     7    16  1
   14     7     8  1
   15     3     9  1
   16     8     9  1
   17     3     4  1
   18     4    11  1
   19     4    12  1
   20     8    17  1
   21     8    18  1
