@<TRIPOS>MOLECULE
generated_molecule
15 15 0 0 0
SMALL
NO_CHARGES

@<TRIPOS>ATOM
     1  C1        -1.6418      0.7328      1.0076  C       1  LIG       0.0000
     2  N2        -0.6942      0.2732     -0.0762  N       1  LIG       0.0000
     3  C3        -1.0130      1.3603     -1.0475  C       1  LIG       0.0000
     4  O4        -1.9961      2.2463     -1.0337  O       1  LIG       0.0000
     5  C5         0.3615     -0.5987     -0.2608  C       1  LIG       0.0000
     6  C6         1.6311     -0.4828      0.3071  C       1  LIG       0.0000
     7  N7         2.3062     -1.6742     -0.0728  N       1  LIG       0.0000
     8  N8         1.4874     -2.4689     -0.8812  N       1  LIG       0.0000
     9  N9         0.2929     -1.7839     -0.9823  N       1  LIG       0.0000
    10  H10       -0.9653      0.9031      1.8203  H       1  LIG       0.0000
    11  H11       -2.5009      0.0490      1.3069  H       1  LIG       0.0000
    12  H12       -2.2383      1.6299      0.6939  H       1  LIG       0.0000
    13  H13       -0.3320      1.4327     -1.8529  H       1  LIG       0.0000
    14  H14        2.0651      0.3184      0.8646  H       1  LIG       0.0000
    15  H15        3.2374     -1.9372      0.2072  H       1  LIG       0.0000
@<TRIPOS>BOND
    1     7    15  1
    2     7     8  ar
    3     6     7  ar
    4     6    14  1
    5     8     9  ar
    6     5     6  ar
    7     5     9  ar
    8     2     5  1
    9     1    11  1
   10     1    10  1
   11     1     2  1
   12     2     3  1
   13     1    12  1
   14     3    13  1
   15     3     4  2
