@<TRIPOS>MOLECULE
generated_molecule
15 15 0 0 0
SMALL
NO_CHARGES

@<TRIPOS>ATOM
     1  C1        -1.5381      0.2389      1.7049  C       1  LIG       0.0000
     2  C2        -0.2968      0.3425      1.0327  C       1  LIG       0.0000
     3  N3         0.7947      1.1891      0.9084  N       1  LIG       0.0000
     4  C4         1.3249      0.7536     -0.2184  C       1  LIG       0.0000
     5  O5         2.3798      1.4076     -0.5273  O       1  LIG       0.0000
     6  C6         0.5134     -0.3087     -0.6970  C       1  LIG       0.0000
     7  C7         0.0627     -1.2006     -1.7141  C       1  LIG       0.0000
     8  O8        -0.4683     -0.5921      0.1153  O       1  LIG       0.0000
     9  H9        -1.5523     -0.7326      2.1555  H       1  LIG       0.0000
    10  H10       -2.2840      0.1968      0.8721  H       1  LIG       0.0000
    11  H11       -1.7405      1.0733      2.3213  H       1  LIG       0.0000
    12  H12        3.1801      1.8802     -0.2276  H       1  LIG       0.0000
    13  H13       -1.0572     -1.0909     -1.6912  H       1  LIG       0.0000
    14  H14        0.4586     -0.9345     -2.6587  H       1  LIG       0.0000
    15  H15        0.2232     -2.2227     -1.3759  H       1  LIG       0.0000
@<TRIPOS>BOND
    1     5    12  1
    2     4     5  1
    3     3     4  ar
    4     2     3  ar
    5     1    10  1
    6     4     6  ar
    7     1     2  1
    8     2     8  ar
    9     1     9  1
   10     1    11  1
   11     6     8  ar
   12     6     7  1
   13     7    15  1
   14     7    13  1
   15     7    14  1
