@<TRIPOS>MOLECULE
generated_molecule
19 20 0 0 0
SMALL
NO_CHARGES

@<TRIPOS>ATOM
     1  O1         2.5913      1.7267      1.3098  O       1  LIG       0.0000
     2  C2         1.5720      2.4278      1.5025  C       1  LIG       0.0000
     3  N3         0.3894      2.1618      0.7052  N       1  LIG       0.0000
     4  C4        -0.4742      0.9897      1.0474  C       1  LIG       0.0000
     5  C5        -0.7720      0.0624     -0.2369  C       1  LIG       0.0000
     6  C6        -0.3714     -1.3911     -0.2019  C       1  LIG       0.0000
     7  C7        -1.0945     -2.2939     -1.1733  C       1  LIG       0.0000
     8  N8        -0.7730     -0.9126     -1.3708  N       1  LIG       0.0000
     9  C9         0.6837     -1.1797     -1.2956  C       1  LIG       0.0000
    10  H10        1.4867      3.1536      2.3149  H       1  LIG       0.0000
    11  H11        0.0069      2.3907     -0.1203  H       1  LIG       0.0000
    12  H12       -0.1024      1.6604      1.8023  H       1  LIG       0.0000
    13  H13       -1.2361      0.3166      1.4610  H       1  LIG       0.0000
    14  H14       -1.2503      0.8670     -0.7565  H       1  LIG       0.0000
    15  H15       -0.4031     -1.9385      0.7211  H       1  LIG       0.0000
    16  H16       -1.9641     -2.7219     -0.6969  H       1  LIG       0.0000
    17  H17       -0.6289     -2.8883     -1.9738  H       1  LIG       0.0000
    18  H18        1.4505     -0.5711     -0.9040  H       1  LIG       0.0000
    19  H19        0.8894     -1.8597     -2.1341  H       1  LIG       0.0000
@<TRIPOS>BOND
    1     7    16  1
    2     7    17  1
    3     7     8  1
    4     6     7  1
    5     3    11  1
    6     8     9  1
    7     5     8  1
    8     9    19  1
    9     4    13  1
   10     2    10  1
   11     2     3  1
   12     3     4  1
   13     6     9  1
   14     9    18  1
   15     1     2  2
   16     4     5  1
   17     4    12  1
   18     5     6  1
   19     6    15  1
   20     5    14  1
