@<TRIPOS>MOLECULE
generated_molecule
16 15 0 0 0
SMALL
NO_CHARGES

@<TRIPOS>ATOM
     1  N1         0.4479     -0.7085      2.8255  N       1  LIG       0.0000
     2  C2         0.1457     -1.1827      1.5503  C       1  LIG       0.0000
     3  O3         0.6000     -0.8799      0.3313  O       1  LIG       0.0000
     4  C4         0.7134     -0.6569     -0.9665  C       1  LIG       0.0000
     5  C5         1.3358      0.5887     -1.6989  C       1  LIG       0.0000
     6  C6         0.1213      0.8317     -0.9406  C       1  LIG       0.0000
     7  C7        -0.8901      0.8834     -0.3714  C       1  LIG       0.0000
     8  C8        -2.2293      1.0230      0.2383  C       1  LIG       0.0000
     9  O9        -2.7029      0.3440      1.2209  O       1  LIG       0.0000
    10  H10        0.8608     -0.0208      3.2559  H       1  LIG       0.0000
    11  H11       -0.5680     -1.8781      1.5906  H       1  LIG       0.0000
    12  H12        0.2033     -0.2115     -1.8189  H       1  LIG       0.0000
    13  H13        0.8845     -1.6099     -0.7082  H       1  LIG       0.0000
    14  H14        2.1846      1.2663     -1.5314  H       1  LIG       0.0000
    15  H15        1.6673      0.4180     -2.7119  H       1  LIG       0.0000
    16  H16       -2.7744      1.7931     -0.2649  H       1  LIG       0.0000
@<TRIPOS>BOND
    1     4    12  1
    2     5    15  1
    3     8    16  1
    4     8     9  2
    5     7     8  1
    6     2    11  1
    7     6     7  3
    8     3     4  1
    9     4     5  1
   10     4    13  1
   11     5     6  1
   12     2     3  1
   13     1     2  1
   14     1    10  1
   15     5    14  1
