@<TRIPOS>MOLECULE
generated_molecule
18 21 0 0 0
SMALL
NO_CHARGES

@<TRIPOS>ATOM
     1  C1        -0.5960      0.3415      1.8391  C       1  LIG       0.0000
     2  C2        -1.5458      0.5775      0.6316  C       1  LIG       0.0000
     3  C3        -0.8013      0.3562     -0.7269  C       1  LIG       0.0000
     4  C4        -0.0480     -0.8522     -1.1865  C       1  LIG       0.0000
     5  C5         1.1623     -0.3697     -1.9879  C       1  LIG       0.0000
     6  C6         1.9257      0.0239     -0.6472  C       1  LIG       0.0000
     7  N7         0.6227      0.5836     -0.9353  N       1  LIG       0.0000
     8  C8         0.8073     -0.6364      0.0381  C       1  LIG       0.0000
     9  C9         0.5315     -0.5821      1.4363  C       1  LIG       0.0000
    10  H10       -0.0114      1.1706      2.2647  H       1  LIG       0.0000
    11  H11       -1.2770     -0.0160      2.6342  H       1  LIG       0.0000
    12  H12       -2.1079      1.0139      1.5191  H       1  LIG       0.0000
    13  H13       -2.2787      0.4975     -0.1180  H       1  LIG       0.0000
    14  H14       -1.4767      0.7983     -1.4610  H       1  LIG       0.0000
    15  H15       -0.5532     -1.6299     -1.7610  H       1  LIG       0.0000
    16  H16        1.6339     -0.4506     -2.9518  H       1  LIG       0.0000
    17  H17        2.9224      0.3610     -0.6761  H       1  LIG       0.0000
    18  H18        1.0900     -1.1870      2.0886  H       1  LIG       0.0000
@<TRIPOS>BOND
    1     5    16  1
    2     4    15  1
    3     4     5  1
    4     5     7  1
    5     5     6  1
    6     3     4  1
    7     4     8  1
    8     3    14  1
    9     3     7  1
   10     2     3  1
   11     1    11  1
   12     6     8  1
   13     8     9  1
   14     6     7  1
   15     6    17  1
   16     2    12  1
   17     1     2  1
   18     2    13  1
   19     1     9  1
   20     1    10  1
   21     9    18  1
