@<TRIPOS>MOLECULE
generated_molecule
15 14 0 0 0
SMALL
NO_CHARGES

@<TRIPOS>ATOM
     1  C1         1.8607      1.5197      0.0324  C       1  LIG       0.0000
     2  C2         1.0966      0.5120      1.0406  C       1  LIG       0.0000
     3  O3         1.7857      0.1900      1.9168  O       1  LIG       0.0000
     4  N4        -0.3087      0.0728      1.0712  N       1  LIG       0.0000
     5  C5        -1.4883     -0.5754      0.4924  C       1  LIG       0.0000
     6  O6        -2.4423     -0.6859      1.2438  O       1  LIG       0.0000
     7  C7        -1.6222     -1.0703     -0.9767  C       1  LIG       0.0000
     8  O8        -0.7425     -1.9235     -1.5443  O       1  LIG       0.0000
     9  H9         2.7863      0.9984     -0.2383  H       1  LIG       0.0000
    10  H10        1.7484      2.3799      0.5744  H       1  LIG       0.0000
    11  H11        1.5618      1.9743     -0.9942  H       1  LIG       0.0000
    12  H12       -0.5484      0.4666      1.9587  H       1  LIG       0.0000
    13  H13       -2.6942     -1.3268     -0.9415  H       1  LIG       0.0000
    14  H14       -1.2033     -0.4706     -1.7378  H       1  LIG       0.0000
    15  H15        0.2105     -2.0612     -1.8976  H       1  LIG       0.0000
@<TRIPOS>BOND
    1     1    10  1
    2     7    14  1
    3     5     6  2
    4     2     3  2
    5     7     8  1
    6     8    15  1
    7     4     5  1
    8     5     7  1
    9     2     4  1
   10     1     2  1
   11     1     9  1
   12     4    12  1
   13     1    11  1
   14     7    13  1
