@<TRIPOS>MOLECULE
generated_molecule
18 20 0 0 0
SMALL
NO_CHARGES

@<TRIPOS>ATOM
     1  O1        -2.1866     -1.3230      0.7493  O       1  LIG       0.0000
     2  C2        -1.2632     -0.5859      1.0213  C       1  LIG       0.0000
     3  C3        -0.6287      0.1805      2.1397  C       1  LIG       0.0000
     4  N4         0.4217      0.6126      1.2797  N       1  LIG       0.0000
     5  C5        -0.2002     -0.0887      0.1355  C       1  LIG       0.0000
     6  C6        -0.3300      0.4159     -1.3138  C       1  LIG       0.0000
     7  C7         0.6623      0.7460     -0.1795  C       1  LIG       0.0000
     8  C8         0.7975     -0.7612     -0.7375  C       1  LIG       0.0000
     9  C9         0.3152     -0.6678     -2.1605  C       1  LIG       0.0000
    10  H10       -1.3523     -0.3612      2.7325  H       1  LIG       0.0000
    11  H11       -0.0811      0.9564      2.6775  H       1  LIG       0.0000
    12  H12        1.2696      1.0897      1.2324  H       1  LIG       0.0000
    13  H13       -1.0112      1.0248     -1.8534  H       1  LIG       0.0000
    14  H14        0.4522      0.6484      0.8648  H       1  LIG       0.0000
    15  H15        1.1289      1.6237     -0.5885  H       1  LIG       0.0000
    16  H16        1.2876     -1.6866     -0.5698  H       1  LIG       0.0000
    17  H17        0.9218     -1.5435     -2.3901  H       1  LIG       0.0000
    18  H18       -0.2034     -0.2799     -3.0399  H       1  LIG       0.0000
@<TRIPOS>BOND
    1     8    16  1
    2     7     8  1
    3     8     9  1
    4     5     8  1
    5     7    14  1
    6     7    15  1
    7     6     7  1
    8     3    10  1
    9     9    18  1
   10     1     2  2
   11     9    17  1
   12     6     9  1
   13     4    12  1
   14     2     5  1
   15     2     3  1
   16     4     5  1
   17     5     6  1
   18     3     4  1
   19     3    11  1
   20     6    13  1
