@<TRIPOS>MOLECULE
generated_molecule
14 15 0 0 0
SMALL
NO_CHARGES

@<TRIPOS>ATOM
     1  O1        -1.3520      0.4081      2.2193  O       1  LIG       0.0000
     2  C2        -0.7978     -0.0233      1.2430  C       1  LIG       0.0000
     3  O3        -1.4108     -0.9228      0.5290  O       1  LIG       0.0000
     4  C4        -1.0537     -1.4519     -0.6531  C       1  LIG       0.0000
     5  C5         0.1969     -0.5201     -0.7402  C       1  LIG       0.0000
     6  O6         0.6109      0.8198     -0.8587  O       1  LIG       0.0000
     7  C7         1.0728      1.6355      0.0078  C       1  LIG       0.0000
     8  C8         0.5614      0.2772      0.5452  C       1  LIG       0.0000
     9  H9        -1.5673     -2.3039     -0.2528  H       1  LIG       0.0000
    10  H10       -1.1358     -1.5487     -1.7627  H       1  LIG       0.0000
    11  H11        0.6816     -0.9929     -1.5655  H       1  LIG       0.0000
    12  H12        1.9901      1.9353     -0.5002  H       1  LIG       0.0000
    13  H13        0.7113      2.4208      0.6882  H       1  LIG       0.0000
    14  H14        1.4924      0.2669      1.1006  H       1  LIG       0.0000
@<TRIPOS>BOND
    1     8    14  1
    2     4     9  1
    3     5    11  1
    4     2     8  1
    5     5     8  1
    6     7     8  1
    7     1     2  2
    8     2     3  1
    9     4     5  1
   10     5     6  1
   11     3     4  1
   12     4    10  1
   13     7    12  1
   14     6     7  1
   15     7    13  1
