@<TRIPOS>MOLECULE
generated_molecule
17 17 0 0 0
SMALL
NO_CHARGES

@<TRIPOS>ATOM
     1  O1        -0.0848     -1.0434      2.4577  O       1  LIG       0.0000
     2  C2         0.3573     -1.4852      1.2013  C       1  LIG       0.0000
     3  C3         0.3946     -0.3320      0.1539  C       1  LIG       0.0000
     4  C4        -0.8101     -0.5495     -0.7965  C       1  LIG       0.0000
     5  O5        -0.9524      0.1913     -1.9737  O       1  LIG       0.0000
     6  C6        -1.0928      1.5024     -2.3876  C       1  LIG       0.0000
     7  O7        -1.2060      1.9861     -3.5493  O       1  LIG       0.0000
     8  C8         1.3701      0.8688      0.7238  C       1  LIG       0.0000
     9  O9         1.2758      0.5007     -0.6054  O       1  LIG       0.0000
    10  H10       -0.1025     -0.4352      3.1816  H       1  LIG       0.0000
    11  H11        1.3869     -1.7529      1.2231  H       1  LIG       0.0000
    12  H12       -0.3343     -2.2729      0.9884  H       1  LIG       0.0000
    13  H13       -1.5358     -0.2606     -0.0600  H       1  LIG       0.0000
    14  H14       -0.7639     -1.4504     -1.2766  H       1  LIG       0.0000
    15  H15       -1.0997      2.1198     -1.4840  H       1  LIG       0.0000
    16  H16        1.1908      1.9325      0.6899  H       1  LIG       0.0000
    17  H17        2.0068      0.4802      1.5131  H       1  LIG       0.0000
@<TRIPOS>BOND
    1     4    13  1
    2     4     5  1
    3     5     6  1
    4     4    14  1
    5     3     4  1
    6     2    11  1
    7     6     7  2
    8     6    15  1
    9     1    10  1
   10     2     3  1
   11     3     8  1
   12     3     9  1
   13     1     2  1
   14     2    12  1
   15     8    16  1
   16     8    17  1
   17     8     9  1
