@<TRIPOS>MOLECULE
generated_molecule
21 21 0 0 0
SMALL
NO_CHARGES

@<TRIPOS>ATOM
     1  C1         0.3331      0.8370      0.9216  C       1  LIG       0.0000
     2  C2         1.2634     -0.3589      0.8762  C       1  LIG       0.0000
     3  C3         0.4492     -1.2210      0.1342  C       1  LIG       0.0000
     4  C4        -0.3347     -1.6940     -0.3419  C       1  LIG       0.0000
     5  C5        -1.4388     -1.4034     -0.8364  C       1  LIG       0.0000
     6  O6        -1.7221     -0.1464     -1.1410  O       1  LIG       0.0000
     7  C7        -0.4077     -0.0847     -0.5467  C       1  LIG       0.0000
     8  C8        -1.5237      1.0773     -0.8623  C       1  LIG       0.0000
     9  C9         1.5704     -0.1622      0.1285  C       1  LIG       0.0000
    10  H10        0.9552      1.5143      1.3252  H       1  LIG       0.0000
    11  H11       -0.1193      1.0987     -0.0927  H       1  LIG       0.0000
    12  H12       -0.5909      0.5363      1.4767  H       1  LIG       0.0000
    13  H13        1.3841     -0.8111      1.8332  H       1  LIG       0.0000
    14  H14        2.1561     -0.3956      0.2937  H       1  LIG       0.0000
    15  H15       -2.3006     -2.1313     -1.0759  H       1  LIG       0.0000
    16  H16       -2.3877      1.1238     -0.1218  H       1  LIG       0.0000
    17  H17       -2.1735      0.8422     -1.7918  H       1  LIG       0.0000
    18  H18       -0.9919      1.9521     -0.9708  H       1  LIG       0.0000
    19  H19        1.7774     -0.9925      0.9110  H       1  LIG       0.0000
    20  H20        1.8300      0.8070      0.6236  H       1  LIG       0.0000
    21  H21        2.2721     -0.3878     -0.7427  H       1  LIG       0.0000
@<TRIPOS>BOND
    1     5     6  1
    2     6     7  1
    3     2    13  1
    4     1    11  1
    5     8    18  1
    6     8    16  1
    7     2     3  1
    8     1     2  1
    9     2    14  1
   10     1    10  1
   11     3     4  3
   12     1    12  1
   13     4     5  1
   14     5     7  1
   15     5    15  1
   16     7     8  1
   17     8    17  1
   18     7     9  1
   19     9    19  1
   20     9    21  1
   21     9    20  1
