@<TRIPOS>MOLECULE
generated_molecule
20 20 0 0 0
SMALL
NO_CHARGES

@<TRIPOS>ATOM
     1  C1         0.4533      1.6349      1.2939  C       1  LIG       0.0000
     2  N2         0.5370      1.0730     -0.0280  N       1  LIG       0.0000
     3  C3         1.1429     -0.2577      0.4139  C       1  LIG       0.0000
     4  C4         0.0299     -1.3056      0.8620  C       1  LIG       0.0000
     5  C5        -1.4223     -1.2904      0.1153  C       1  LIG       0.0000
     6  O6        -1.5217     -0.6863     -1.1422  O       1  LIG       0.0000
     7  C7        -0.8354     -0.0878     -2.1126  C       1  LIG       0.0000
     8  O8        -1.1836     -0.4500     -3.2320  O       1  LIG       0.0000
     9  C9         0.2614      0.8805     -1.4557  C       1  LIG       0.0000
    10  H10       -0.5826      1.5994      1.6645  H       1  LIG       0.0000
    11  H11        0.8255      2.6613      1.3005  H       1  LIG       0.0000
    12  H12        1.0838      0.9954      1.9326  H       1  LIG       0.0000
    13  H13        1.9197      0.4908      0.2331  H       1  LIG       0.0000
    14  H14        1.6058     -1.2406      0.5961  H       1  LIG       0.0000
    15  H15        0.0492     -1.0266      1.9012  H       1  LIG       0.0000
    16  H16        0.3298     -2.3144      0.6674  H       1  LIG       0.0000
    17  H17       -1.9842     -0.9992      1.0028  H       1  LIG       0.0000
    18  H18       -1.8484     -1.9613     -0.5380  H       1  LIG       0.0000
    19  H19        0.9322      1.4415     -0.9208  H       1  LIG       0.0000
    20  H20        0.2079      0.8431     -2.5540  H       1  LIG       0.0000
@<TRIPOS>BOND
    1     4    15  1
    2     3    13  1
    3     3    14  1
    4     3     4  1
    5     4    16  1
    6     4     5  1
    7     2     3  1
    8     5    17  1
    9     5    18  1
   10     5     6  1
   11     1     2  1
   12     2     9  1
   13     1    11  1
   14     9    20  1
   15     6     7  1
   16     1    10  1
   17     1    12  1
   18     7     9  1
   19     9    19  1
   20     7     8  2
