@<TRIPOS>MOLECULE
generated_molecule
17 18 0 0 0
SMALL
NO_CHARGES

@<TRIPOS>ATOM
     1  C1        -0.3239     -2.1539     -0.3856  C       1  LIG       0.0000
     2  C2         0.2283     -1.2576     -0.9482  C       1  LIG       0.0000
     3  C3         1.0709     -0.0572     -1.4854  C       1  LIG       0.0000
     4  O4         1.9554      0.0270     -0.4365  O       1  LIG       0.0000
     5  C5         0.8945     -0.0986      0.4749  C       1  LIG       0.0000
     6  C6        -0.4822     -0.1010      1.2633  C       1  LIG       0.0000
     7  C7        -1.1102      1.2111      0.9237  C       1  LIG       0.0000
     8  C8        -0.0960      0.9200     -0.0861  C       1  LIG       0.0000
     9  C9         0.0940      1.1141     -1.3843  C       1  LIG       0.0000
    10  H10       -0.7996     -2.9697      0.1554  H       1  LIG       0.0000
    11  H11        1.6827     -0.0758     -2.2975  H       1  LIG       0.0000
    12  H12        1.5990     -0.7838      0.7674  H       1  LIG       0.0000
    13  H13       -0.7816     -1.0179      0.8108  H       1  LIG       0.0000
    14  H14       -0.5153      0.0189      2.3316  H       1  LIG       0.0000
    15  H15       -1.3005      1.5452      1.9417  H       1  LIG       0.0000
    16  H16       -1.7887      1.7781      0.2661  H       1  LIG       0.0000
    17  H17       -0.3268      1.9011     -1.9115  H       1  LIG       0.0000
@<TRIPOS>BOND
    1     3    11  1
    2     9    17  1
    3     3     9  1
    4     2     3  1
    5     3     4  1
    6     8     9  2
    7     1     2  3
    8     1    10  1
    9     5     8  1
   10     7     8  1
   11     4     5  1
   12     5    12  1
   13     5     6  1
   14     7    15  1
   15     7    16  1
   16     6     7  1
   17     6    14  1
   18     6    13  1
