@<TRIPOS>MOLECULE
generated_molecule
19 22 0 0 0
SMALL
NO_CHARGES

@<TRIPOS>ATOM
     1  C1         1.3034     -0.1213     -0.8766  C       1  LIG       0.0000
     2  C2        -0.0039      0.7112     -1.1544  C       1  LIG       0.0000
     3  C3        -1.4592      0.3458     -0.8571  C       1  LIG       0.0000
     4  C4        -0.9835     -0.9336     -0.0881  C       1  LIG       0.0000
     5  C5        -0.4280     -0.5755      1.3580  C       1  LIG       0.0000
     6  O6         0.7615     -1.1674      1.7386  O       1  LIG       0.0000
     7  C7         1.3443     -0.4642      0.6599  C       1  LIG       0.0000
     8  C8         0.3706      0.6816      0.9765  C       1  LIG       0.0000
     9  C9        -0.7343      1.2793      0.1073  C       1  LIG       0.0000
    10  H10        1.1977     -0.4713     -1.9004  H       1  LIG       0.0000
    11  H11        2.3702     -0.1688     -0.6929  H       1  LIG       0.0000
    12  H12       -0.0063      1.1170     -2.1604  H       1  LIG       0.0000
    13  H13       -2.3550      0.7152     -1.3538  H       1  LIG       0.0000
    14  H14       -0.7980     -1.8926      0.3590  H       1  LIG       0.0000
    15  H15       -1.1816     -0.8880     -1.1145  H       1  LIG       0.0000
    16  H16       -0.9466     -0.5361      2.2916  H       1  LIG       0.0000
    17  H17        2.2255     -1.0807      0.8199  H       1  LIG       0.0000
    18  H18        0.8441      1.4753      1.5262  H       1  LIG       0.0000
    19  H19       -1.5207      1.9742      0.3613  H       1  LIG       0.0000
@<TRIPOS>BOND
    1     1    11  1
    2     7    17  1
    3     9    19  1
    4     2    12  1
    5     1     7  1
    6     1     2  1
    7     1    10  1
    8     8    18  1
    9     7     8  1
   10     6     7  1
   11     2     9  1
   12     2     3  1
   13     8     9  1
   14     3     9  1
   15     5     8  1
   16     3    13  1
   17     3     4  1
   18     5     6  1
   19     5    16  1
   20     4     5  1
   21     4    15  1
   22     4    14  1
