@<TRIPOS>MOLECULE
generated_molecule
19 20 0 0 0
SMALL
NO_CHARGES

@<TRIPOS>ATOM
     1  C1        -1.7317      1.2106     -0.6991  C       1  LIG       0.0000
     2  C2        -0.2117      0.6761     -0.7104  C       1  LIG       0.0000
     3  C3         1.1678      0.6003      0.0166  C       1  LIG       0.0000
     4  C4         1.9422     -0.7741      0.3088  C       1  LIG       0.0000
     5  C5         0.9194     -1.9065      0.3030  C       1  LIG       0.0000
     6  C6        -0.3701     -1.6343      0.0980  C       1  LIG       0.0000
     7  C7        -0.8839     -0.2233      0.3161  C       1  LIG       0.0000
     8  C8        -0.0961      1.0530      0.7017  C       1  LIG       0.0000
     9  O9        -0.3352      2.1513      1.2378  O       1  LIG       0.0000
    10  H10       -1.9555      1.8053     -1.6395  H       1  LIG       0.0000
    11  H11       -1.8702      1.8290      0.1861  H       1  LIG       0.0000
    12  H12       -2.4149      0.3567     -0.6495  H       1  LIG       0.0000
    13  H13        0.2617      0.8961     -1.6617  H       1  LIG       0.0000
    14  H14        1.9862      1.3202      0.1300  H       1  LIG       0.0000
    15  H15        2.8042     -0.8105     -0.3659  H       1  LIG       0.0000
    16  H16        2.4684     -0.9758      1.2852  H       1  LIG       0.0000
    17  H17        1.2133     -2.9803      0.4889  H       1  LIG       0.0000
    18  H18       -1.0866     -2.3515     -0.1764  H       1  LIG       0.0000
    19  H19       -1.8072     -0.2424      0.8302  H       1  LIG       0.0000
@<TRIPOS>BOND
    1     4    15  1
    2     4    16  1
    3     3    14  1
    4     3     4  1
    5     4     5  1
    6     3     8  1
    7     2     3  1
    8     1    11  1
    9     5    17  1
   10     5     6  2
   11     8     9  2
   12     7     8  1
   13     1    10  1
   14     1     2  1
   15     2    13  1
   16     2     7  1
   17     1    12  1
   18     6     7  1
   19     6    18  1
   20     7    19  1
