@<TRIPOS>MOLECULE
generated_molecule
18 19 0 0 0
SMALL
NO_CHARGES

@<TRIPOS>ATOM
     1  O1         1.0582     -0.5469     -3.3529  O       1  LIG       0.0000
     2  C2         0.9162     -0.0886     -2.2328  C       1  LIG       0.0000
     3  N3        -0.3812      0.2060     -1.7927  N       1  LIG       0.0000
     4  C4        -0.8164      0.9960     -0.6469  C       1  LIG       0.0000
     5  C5        -0.1205      1.3059      0.7564  C       1  LIG       0.0000
     6  C6         0.1160      0.2286      1.9069  C       1  LIG       0.0000
     7  C7         0.5309     -1.0316      1.1954  C       1  LIG       0.0000
     8  C8        -0.1381     -1.4783      0.1265  C       1  LIG       0.0000
     9  C9        -1.0147     -0.5569     -0.7192  C       1  LIG       0.0000
    10  H10        1.6615      0.1234     -1.4575  H       1  LIG       0.0000
    11  H11       -1.4178      1.7274     -1.1937  H       1  LIG       0.0000
    12  H12       -0.6495      2.1855      0.3939  H       1  LIG       0.0000
    13  H13        0.8204      1.4569      1.2603  H       1  LIG       0.0000
    14  H14       -0.2760     -0.5065      2.6362  H       1  LIG       0.0000
    15  H15        0.3816      1.0335      2.6249  H       1  LIG       0.0000
    16  H16        1.3782     -1.6485      1.5044  H       1  LIG       0.0000
    17  H17       -0.0420     -2.4938     -0.0495  H       1  LIG       0.0000
    18  H18       -2.0067     -0.9119     -0.9599  H       1  LIG       0.0000
@<TRIPOS>BOND
    1     9    18  1
    2     4    11  1
    3     3     9  1
    4     3     4  1
    5     2     3  1
    6     4     9  1
    7     8     9  1
    8     4     5  1
    9     2    10  1
   10     1     2  2
   11     8    17  1
   12     7     8  2
   13     5    13  1
   14     5    12  1
   15     5     6  1
   16     6     7  1
   17     7    16  1
   18     6    15  1
   19     6    14  1
