@<TRIPOS>MOLECULE
generated_molecule
25 26 0 0 0
SMALL
NO_CHARGES

@<TRIPOS>ATOM
     1  C1         0.1749     -0.1350      2.0365  C       1  LIG       0.0000
     2  C2         1.1380     -0.0944      0.7283  C       1  LIG       0.0000
     3  C3         0.9858      0.6750     -0.6354  C       1  LIG       0.0000
     4  C4         0.3399     -0.2839     -1.6516  C       1  LIG       0.0000
     5  C5        -0.6450      0.6692     -2.3746  C       1  LIG       0.0000
     6  C6        -0.4846      1.1232     -0.9103  C       1  LIG       0.0000
     7  C7        -0.3128     -0.2525     -0.2626  C       1  LIG       0.0000
     8  C8         0.8201     -0.9867      0.4856  C       1  LIG       0.0000
     9  C9        -1.7029     -0.0964      0.3619  C       1  LIG       0.0000
    10  H10        0.1365      0.8792      2.4995  H       1  LIG       0.0000
    11  H11        0.6160     -0.8942      2.6331  H       1  LIG       0.0000
    12  H12       -0.9182     -0.3585      1.8103  H       1  LIG       0.0000
    13  H13        1.9301      0.4372      1.1175  H       1  LIG       0.0000
    14  H14        1.0354     -1.0771      0.3565  H       1  LIG       0.0000
    15  H15        1.6921      1.3769     -1.0471  H       1  LIG       0.0000
    16  H16        0.7774     -0.9764     -2.3492  H       1  LIG       0.0000
    17  H17       -0.3247      0.1738     -3.2864  H       1  LIG       0.0000
    18  H18       -1.4832      1.3615     -2.4940  H       1  LIG       0.0000
    19  H19       -0.9496      1.9629     -0.4324  H       1  LIG       0.0000
    20  H20        1.7914     -0.4861      0.3413  H       1  LIG       0.0000
    21  H21        0.5865     -0.9420      1.5569  H       1  LIG       0.0000
    22  H22        0.8623     -1.9774      0.0677  H       1  LIG       0.0000
    23  H23       -1.7050     -0.7907      1.1761  H       1  LIG       0.0000
    24  H24       -1.8745      0.9416      0.6491  H       1  LIG       0.0000
    25  H25       -2.4859     -0.2495     -0.3769  H       1  LIG       0.0000
@<TRIPOS>BOND
    1     9    24  1
    2     9    25  1
    3     4    16  1
    4     5    17  1
    5     9    23  1
    6     7     9  1
    7     4     5  1
    8     4     7  1
    9     3     4  1
   10     5    18  1
   11     5     6  1
   12     8    21  1
   13     7     8  1
   14     6     7  1
   15     1    11  1
   16     8    22  1
   17     8    20  1
   18     3     6  1
   19     6    19  1
   20     2     3  1
   21     3    15  1
   22     2    13  1
   23     1     2  1
   24     1    10  1
   25     1    12  1
   26     2    14  1
