@<TRIPOS>MOLECULE
generated_molecule
16 17 0 0 0
SMALL
NO_CHARGES

@<TRIPOS>ATOM
     1  O1         0.8005      1.5240     -2.4322  O       1  LIG       0.0000
     2  C2         0.6338      1.5568     -1.1970  C       1  LIG       0.0000
     3  C3         0.4473      0.3334     -0.3801  C       1  LIG       0.0000
     4  C4         1.7620     -0.4682     -0.2270  C       1  LIG       0.0000
     5  C5         0.4148     -1.1663      0.0505  C       1  LIG       0.0000
     6  C6        -1.0844     -1.2959      0.6732  C       1  LIG       0.0000
     7  O7        -1.7479     -0.3384      1.5098  O       1  LIG       0.0000
     8  C8        -1.5916      0.9095      0.9343  C       1  LIG       0.0000
     9  N9        -0.7753      0.9919     -0.0680  N       1  LIG       0.0000
    10  H10        0.5927      2.4950     -0.6387  H       1  LIG       0.0000
    11  H11        2.4167     -0.3138      0.6260  H       1  LIG       0.0000
    12  H12        2.2487     -0.6824     -1.1709  H       1  LIG       0.0000
    13  H13        0.8400     -2.1562     -0.0728  H       1  LIG       0.0000
    14  H14       -1.9597     -0.8050      0.4919  H       1  LIG       0.0000
    15  H15       -0.9005     -2.3370      0.7112  H       1  LIG       0.0000
    16  H16       -2.0971      1.7528      1.1899  H       1  LIG       0.0000
@<TRIPOS>BOND
    1     6    14  1
    2     6    15  1
    3     5    13  1
    4     5     6  1
    5     6     7  1
    6     3     5  1
    7     4     5  1
    8     7     8  1
    9     1     2  2
   10     2     3  1
   11     3     4  1
   12     3     9  1
   13     8    16  1
   14     8     9  2
   15     2    10  1
   16     4    11  1
   17     4    12  1
