@<TRIPOS>MOLECULE
generated_molecule
14 16 0 0 0
SMALL
NO_CHARGES

@<TRIPOS>ATOM
     1  O1         0.0981     -2.5728      1.3439  O       1  LIG       0.0000
     2  C2         0.4778     -1.8667      0.4495  C       1  LIG       0.0000
     3  N3         1.9492     -1.8643      0.1726  N       1  LIG       0.0000
     4  N4         1.9314     -0.4808      0.0340  N       1  LIG       0.0000
     5  C5         0.7441      0.1569      0.1204  C       1  LIG       0.0000
     6  C6        -0.1336      1.2720      0.3046  C       1  LIG       0.0000
     7  C7        -1.5790      1.6299     -0.1094  C       1  LIG       0.0000
     8  C8        -0.8681      0.3740     -0.7592  C       1  LIG       0.0000
     9  N9        -0.3152     -0.8700     -0.3025  N       1  LIG       0.0000
    10  H10        2.7407     -2.1287     -0.2996  H       1  LIG       0.0000
    11  H11        0.1359      2.0777      0.9350  H       1  LIG       0.0000
    12  H12       -2.5944      1.2387     -0.0832  H       1  LIG       0.0000
    13  H13       -1.4444      2.7145     -0.0133  H       1  LIG       0.0000
    14  H14       -1.1425      0.3194     -1.7929  H       1  LIG       0.0000
@<TRIPOS>BOND
    1     3    10  1
    2     2     9  1
    3     5     9  1
    4     8     9  1
    5     2     3  1
    6     3     4  1
    7     1     2  2
    8     8    14  1
    9     4     5  1
   10     5     6  1
   11     6    11  1
   12     6     8  1
   13     7     8  1
   14     6     7  1
   15     7    12  1
   16     7    13  1
