@<TRIPOS>MOLECULE
generated_molecule
13 13 0 0 0
SMALL
NO_CHARGES

@<TRIPOS>ATOM
     1  N1         0.4475     -1.4716      0.6922  N       1  LIG       0.0000
     2  C2        -0.8379     -1.1969      0.2660  C       1  LIG       0.0000
     3  N3        -1.7093     -0.0083      0.2948  N       1  LIG       0.0000
     4  C4        -0.5746      0.6578     -0.1285  C       1  LIG       0.0000
     5  C5         0.1237      1.0935     -1.2751  C       1  LIG       0.0000
     6  N6         1.3907      0.9310     -0.9286  N       1  LIG       0.0000
     7  C7         1.4571      0.4978      0.3487  C       1  LIG       0.0000
     8  O8         0.2604      0.3802      0.8679  O       1  LIG       0.0000
     9  H9         1.1963     -0.8489      0.9486  H       1  LIG       0.0000
    10  H10       -1.3228     -1.9180     -0.2253  H       1  LIG       0.0000
    11  H11       -2.6231      0.1713      0.4750  H       1  LIG       0.0000
    12  H12       -0.0749      1.5007     -2.2473  H       1  LIG       0.0000
    13  H13        2.2672      0.2115      0.9117  H       1  LIG       0.0000
@<TRIPOS>BOND
    1     5    12  1
    2     1     9  1
    3     1     2  2
    4     5     6  ar
    5     4     5  ar
    6     6     7  ar
    7     2    10  1
    8     2     3  1
    9     3     4  1
   10     4     8  ar
   11     7    13  1
   12     7     8  ar
   13     3    11  1
