@<TRIPOS>MOLECULE
generated_molecule
15 17 0 0 0
SMALL
NO_CHARGES

@<TRIPOS>ATOM
     1  O1        -0.5885     -3.1950     -1.0898  O       1  LIG       0.0000
     2  C2        -0.3016     -2.0305     -0.7554  C       1  LIG       0.0000
     3  O3        -0.5119     -1.4238      0.3930  O       1  LIG       0.0000
     4  C4        -0.2883     -0.1999      0.9964  C       1  LIG       0.0000
     5  C5        -0.1984      1.3356      1.2233  C       1  LIG       0.0000
     6  C6         0.7113      1.1952     -0.0257  C       1  LIG       0.0000
     7  O7         1.2301      0.2632     -0.9352  O       1  LIG       0.0000
     8  C8         0.3705     -0.7683     -1.3577  C       1  LIG       0.0000
     9  C9        -0.3761      0.2087     -0.4716  C       1  LIG       0.0000
    10  H10        0.0249     -0.5680      1.9333  H       1  LIG       0.0000
    11  H11        0.3880      2.1848      1.5667  H       1  LIG       0.0000
    12  H12       -1.2101      1.4449      1.5940  H       1  LIG       0.0000
    13  H13        1.3705      2.0101      0.1208  H       1  LIG       0.0000
    14  H14        0.6897     -1.0185     -2.3418  H       1  LIG       0.0000
    15  H15       -1.3101      0.5617     -0.8505  H       1  LIG       0.0000
@<TRIPOS>BOND
    1     9    15  1
    2     8    14  1
    3     1     2  2
    4     2     8  1
    5     2     3  1
    6     8     9  1
    7     7     8  1
    8     4     9  1
    9     6     9  1
   10     4    10  1
   11     3     4  1
   12     4     5  1
   13     6     7  1
   14     5     6  1
   15     6    13  1
   16     5    11  1
   17     5    12  1
