@<TRIPOS>MOLECULE
generated_molecule
18 21 0 0 0
SMALL
NO_CHARGES

@<TRIPOS>ATOM
     1  O1        -0.1555      0.8267     -1.7966  O       1  LIG       0.0000
     2  C2        -0.5748      0.2295     -0.6720  C       1  LIG       0.0000
     3  C3        -0.0456      1.3722      0.2008  C       1  LIG       0.0000
     4  C4         1.3681      0.7446      0.1629  C       1  LIG       0.0000
     5  N5         1.2368     -0.7120      0.4817  N       1  LIG       0.0000
     6  C6         0.3897     -1.8173      0.2731  C       1  LIG       0.0000
     7  C7        -0.1130     -0.6764      1.2062  C       1  LIG       0.0000
     8  C8        -1.4130     -0.3985      0.3870  C       1  LIG       0.0000
     9  C9        -0.7352     -1.3113     -0.6694  C       1  LIG       0.0000
    10  H10        0.0594      1.3723     -2.5812  H       1  LIG       0.0000
    11  H11       -1.0861      1.4623      0.5342  H       1  LIG       0.0000
    12  H12        0.4403      2.3418      0.4216  H       1  LIG       0.0000
    13  H13        2.2170      0.2479     -0.1918  H       1  LIG       0.0000
    14  H14        1.4681      1.8370      0.2917  H       1  LIG       0.0000
    15  H15        0.7638     -2.8061      0.4323  H       1  LIG       0.0000
    16  H16       -0.1630     -0.4220      2.2530  H       1  LIG       0.0000
    17  H17       -2.4404     -0.2735      0.5741  H       1  LIG       0.0000
    18  H18       -1.2165     -2.0172     -1.3077  H       1  LIG       0.0000
@<TRIPOS>BOND
    1     4    13  1
    2     3    11  1
    3     3     4  1
    4     4    14  1
    5     4     5  1
    6     3    12  1
    7     2     3  1
    8     7    16  1
    9     5     7  1
   10     5     6  1
   11     1     2  1
   12     2     8  1
   13     2     9  1
   14     7     8  1
   15     6     7  1
   16     1    10  1
   17     8    17  1
   18     8     9  1
   19     6     9  1
   20     6    15  1
   21     9    18  1
