@<TRIPOS>MOLECULE
generated_molecule
13 14 0 0 0
SMALL
NO_CHARGES

@<TRIPOS>ATOM
     1  O1        -1.3975      2.4335     -0.9813  O       1  LIG       0.0000
     2  C2        -0.8531      1.3564     -0.6459  C       1  LIG       0.0000
     3  C3         0.5258      0.7081     -0.7017  C       1  LIG       0.0000
     4  C4         1.2155     -0.6964     -0.8269  C       1  LIG       0.0000
     5  N5        -0.0463     -0.6663     -0.1686  N       1  LIG       0.0000
     6  C6        -1.2778      0.0330      0.0103  C       1  LIG       0.0000
     7  C7        -0.7511     -0.5299      1.2705  C       1  LIG       0.0000
     8  C8        -0.1664     -0.8898      2.2203  C       1  LIG       0.0000
     9  H9         1.3480      1.4282     -0.8367  H       1  LIG       0.0000
    10  H10        1.1394     -1.7488     -0.7273  H       1  LIG       0.0000
    11  H11        2.1035     -0.2425     -1.2671  H       1  LIG       0.0000
    12  H12       -2.2716      0.0177     -0.4170  H       1  LIG       0.0000
    13  H13        0.4316     -1.2031      3.0715  H       1  LIG       0.0000
@<TRIPOS>BOND
    1     6    12  1
    2     3     9  1
    3     3     5  1
    4     5     6  1
    5     4     5  1
    6     2     3  1
    7     3     4  1
    8     1     2  2
    9     2     6  1
   10     6     7  1
   11     4    10  1
   12     4    11  1
   13     7     8  3
   14     8    13  1
