@<TRIPOS>MOLECULE
generated_molecule
18 21 0 0 0
SMALL
NO_CHARGES

@<TRIPOS>ATOM
     1  O1        -1.1777     -1.1752      1.3380  O       1  LIG       0.0000
     2  C2        -0.1083     -0.6492      0.7935  C       1  LIG       0.0000
     3  C3         0.4432     -0.0979      1.8633  C       1  LIG       0.0000
     4  C4        -0.4270      0.1555      0.5564  C       1  LIG       0.0000
     5  C5        -0.3696      0.8671     -0.8476  C       1  LIG       0.0000
     6  C6         0.4485      0.6703     -2.1746  C       1  LIG       0.0000
     7  N7         1.1789     -0.4029     -1.4371  N       1  LIG       0.0000
     8  C8         0.8149      0.2348     -0.0998  C       1  LIG       0.0000
     9  C9         0.0041     -0.9139     -0.6279  C       1  LIG       0.0000
    10  H10       -2.0380     -1.3098      1.7503  H       1  LIG       0.0000
    11  H11        0.5574      0.8426      2.4050  H       1  LIG       0.0000
    12  H12        0.9935     -0.9171      2.2553  H       1  LIG       0.0000
    13  H13       -1.2607      0.5789      1.1226  H       1  LIG       0.0000
    14  H14       -1.3340      1.3478     -0.7415  H       1  LIG       0.0000
    15  H15       -0.2499      1.3551     -2.7111  H       1  LIG       0.0000
    16  H16        1.2177      0.4416     -2.8192  H       1  LIG       0.0000
    17  H17        1.5899      0.8076      0.3944  H       1  LIG       0.0000
    18  H18       -0.2826     -1.8354     -1.0199  H       1  LIG       0.0000
@<TRIPOS>BOND
    1     3    11  1
    2     3    12  1
    3     3     4  1
    4     2     3  1
    5     4    13  1
    6     4     9  1
    7     4     5  1
    8     9    18  1
    9     1     2  1
   10     1    10  1
   11     2     9  1
   12     2     8  1
   13     7     9  1
   14     5    14  1
   15     5     8  1
   16     5     6  1
   17     7     8  1
   18     8    17  1
   19     6    15  1
   20     6     7  1
   21     6    16  1
