@<TRIPOS>MOLECULE
generated_molecule
15 16 0 0 0
SMALL
NO_CHARGES

@<TRIPOS>ATOM
     1  O1         2.5124      0.1070      1.2343  O       1  LIG       0.0000
     2  C2         1.4872      0.2742      0.5501  C       1  LIG       0.0000
     3  C3         1.1914     -0.0032     -0.9183  C       1  LIG       0.0000
     4  C4        -0.1640      0.6520     -0.6308  C       1  LIG       0.0000
     5  C5        -0.9148     -0.5939     -0.9966  C       1  LIG       0.0000
     6  C6        -1.2548     -1.0740      0.2102  C       1  LIG       0.0000
     7  C7        -1.1067     -0.0282      1.2699  C       1  LIG       0.0000
     8  O8        -1.8836      0.0586      2.2149  O       1  LIG       0.0000
     9  C9         0.1052      0.8208      0.8765  C       1  LIG       0.0000
    10  H10        1.4141     -1.0656     -0.9764  H       1  LIG       0.0000
    11  H11        1.5320      0.5182     -1.8102  H       1  LIG       0.0000
    12  H12       -0.6279      1.6127     -0.8422  H       1  LIG       0.0000
    13  H13       -1.0578     -0.9183     -1.9967  H       1  LIG       0.0000
    14  H14       -1.5348     -2.0977      0.3701  H       1  LIG       0.0000
    15  H15        0.3021      1.7375      1.4451  H       1  LIG       0.0000
@<TRIPOS>BOND
    1     9    15  1
    2     1     2  2
    3     3    10  1
    4     2     9  1
    5     2     3  1
    6     4     9  1
    7     7     9  1
    8     4    12  1
    9     3     4  1
   10     3    11  1
   11     4     5  1
   12     7     8  2
   13     6     7  1
   14     5     6  2
   15     5    13  1
   16     6    14  1
