@<TRIPOS>MOLECULE
generated_molecule
23 23 0 0 0
SMALL
NO_CHARGES

@<TRIPOS>ATOM
     1  C1        -0.9664      1.8801     -0.7004  C       1  LIG       0.0000
     2  C2        -0.0803      1.0496      0.2943  C       1  LIG       0.0000
     3  C3         1.0173      0.7630     -0.7253  C       1  LIG       0.0000
     4  C4         0.7677     -0.5431     -0.0079  C       1  LIG       0.0000
     5  C5         0.3923     -1.6430     -1.0197  C       1  LIG       0.0000
     6  C6        -0.6995     -2.5821     -0.5780  C       1  LIG       0.0000
     7  O7        -0.7778     -3.0857      0.5673  O       1  LIG       0.0000
     8  C8        -0.0363     -0.0954      1.3449  C       1  LIG       0.0000
     9  C9        -0.1658      1.2805      1.8197  C       1  LIG       0.0000
    10  H10       -1.8234      2.0066     -0.0814  H       1  LIG       0.0000
    11  H11       -1.1217      1.4698     -1.7567  H       1  LIG       0.0000
    12  H12       -0.4705      2.7456     -1.1469  H       1  LIG       0.0000
    13  H13        0.9518      1.7695     -1.1078  H       1  LIG       0.0000
    14  H14        1.8480      0.2895     -1.2534  H       1  LIG       0.0000
    15  H15        0.2146      0.1388      0.5920  H       1  LIG       0.0000
    16  H16        1.4319     -1.1228      0.6683  H       1  LIG       0.0000
    17  H17        1.1920     -2.3221     -1.3451  H       1  LIG       0.0000
    18  H18        0.1522     -1.0161     -1.8985  H       1  LIG       0.0000
    19  H19       -1.4600     -2.8245     -1.3226  H       1  LIG       0.0000
    20  H20       -0.0526     -0.9421      0.6667  H       1  LIG       0.0000
    21  H21        0.0843     -0.3389      2.4079  H       1  LIG       0.0000
    22  H22        0.5981      1.1848      2.5881  H       1  LIG       0.0000
    23  H23       -0.9960      1.9381      1.9948  H       1  LIG       0.0000
@<TRIPOS>BOND
    1     6    19  1
    2     6     7  2
    3     5     6  1
    4     4    16  1
    5     5    17  1
    6     4     5  1
    7     5    18  1
    8     4    15  1
    9     3     4  1
   10     8    20  1
   11     3    13  1
   12     8    21  1
   13     2     3  1
   14     3    14  1
   15     2     8  1
   16     8     9  1
   17     1    11  1
   18     1     2  1
   19     2     9  1
   20     1    10  1
   21     1    12  1
   22     9    23  1
   23     9    22  1
