@<TRIPOS>MOLECULE
generated_molecule
19 19 0 0 0
SMALL
NO_CHARGES

@<TRIPOS>ATOM
     1  C1         1.3270     -1.3581     -0.5715  C       1  LIG       0.0000
     2  O2         0.8799     -0.5064      0.3251  O       1  LIG       0.0000
     3  C3         0.1795     -0.1635      1.3849  C       1  LIG       0.0000
     4  C4        -1.2543     -0.6377      1.1006  C       1  LIG       0.0000
     5  C5        -1.2523     -0.0025     -0.3005  C       1  LIG       0.0000
     6  C6        -0.1739      1.0625     -0.2702  C       1  LIG       0.0000
     7  C7         0.2149      1.7641     -1.5108  C       1  LIG       0.0000
     8  O8        -0.3792      1.5197     -2.5726  O       1  LIG       0.0000
     9  C9         0.4363      1.2253      0.9145  C       1  LIG       0.0000
    10  H10        2.2725     -0.9314     -0.8895  H       1  LIG       0.0000
    11  H11        0.6268     -1.4981     -1.4370  H       1  LIG       0.0000
    12  H12        1.3748     -2.2696      0.0064  H       1  LIG       0.0000
    13  H13        0.4142     -0.4273      2.4177  H       1  LIG       0.0000
    14  H14       -1.5037     -0.4867      2.1550  H       1  LIG       0.0000
    15  H15       -1.8907     -1.4733      0.7909  H       1  LIG       0.0000
    16  H16       -2.2304      0.4220     -0.4881  H       1  LIG       0.0000
    17  H17       -0.9878     -0.7285     -1.0745  H       1  LIG       0.0000
    18  H18        1.0318      2.4774     -1.4270  H       1  LIG       0.0000
    19  H19        0.9145      2.0121      1.4464  H       1  LIG       0.0000
@<TRIPOS>BOND
    1     7     8  2
    2     7    18  1
    3     6     7  1
    4     6     9  2
    5     5     6  1
    6     5    16  1
    7     9    19  1
    8     3     9  1
    9     5    17  1
   10     4     5  1
   11     3    13  1
   12     3     4  1
   13     2     3  1
   14     4    14  1
   15     4    15  1
   16     1    11  1
   17     1    10  1
   18     1     2  1
   19     1    12  1
