@<TRIPOS>MOLECULE
generated_molecule
22 23 0 0 0
SMALL
NO_CHARGES

@<TRIPOS>ATOM
     1  C1        -0.3207      1.6787      0.4768  C       1  LIG       0.0000
     2  C2         0.5291      0.3950      0.2755  C       1  LIG       0.0000
     3  C3        -0.5251     -0.2419      1.1492  C       1  LIG       0.0000
     4  C4        -1.4190      0.4927      2.1604  C       1  LIG       0.0000
     5  C5        -0.5192     -1.4829      0.7301  C       1  LIG       0.0000
     6  C6        -0.4700     -1.2596     -0.7708  C       1  LIG       0.0000
     7  N7         0.0101     -0.8521     -2.1942  N       1  LIG       0.0000
     8  C8         0.7993     -0.4118     -1.0248  C       1  LIG       0.0000
     9  C9         2.1847     -0.4586     -1.7381  C       1  LIG       0.0000
    10  H10       -0.9191      1.9264     -0.4045  H       1  LIG       0.0000
    11  H11        0.4057      2.4562      0.7358  H       1  LIG       0.0000
    12  H12       -1.0803      1.5324      1.2859  H       1  LIG       0.0000
    13  H13        1.5624      0.2430      0.4387  H       1  LIG       0.0000
    14  H14       -2.1485     -0.2239      2.5710  H       1  LIG       0.0000
    15  H15       -0.8480      0.9468      2.9983  H       1  LIG       0.0000
    16  H16       -1.9034      1.2630      1.5703  H       1  LIG       0.0000
    17  H17       -0.5298     -2.2921      1.3491  H       1  LIG       0.0000
    18  H18       -1.3748     -1.6473     -1.2551  H       1  LIG       0.0000
    19  H19       -0.9124     -0.5876     -2.5767  H       1  LIG       0.0000
    20  H20        2.7538      0.3817     -1.3011  H       1  LIG       0.0000
    21  H21        2.0423     -0.4015     -2.8309  H       1  LIG       0.0000
    22  H22        2.6828     -1.4563     -1.6453  H       1  LIG       0.0000
@<TRIPOS>BOND
    1     4    15  1
    2     4    16  1
    3     4    14  1
    4     3     4  1
    5     5    17  1
    6     3     5  2
    7     2     3  1
    8     1    11  1
    9     5     6  1
   10     2    13  1
   11     1     2  1
   12     2     8  1
   13     1    10  1
   14     1    12  1
   15     6    18  1
   16     6     8  1
   17     6     7  1
   18     7     8  1
   19     8     9  1
   20     7    19  1
   21     9    21  1
   22     9    20  1
   23     9    22  1
