@<TRIPOS>MOLECULE
generated_molecule
18 19 0 0 0
SMALL
NO_CHARGES

@<TRIPOS>ATOM
     1  O1        -1.3180     -0.1956     -1.7029  O       1  LIG       0.0000
     2  C2         0.0360     -0.0035     -1.6287  C       1  LIG       0.0000
     3  C3         0.7247     -0.6567     -0.3850  C       1  LIG       0.0000
     4  C4        -0.1828     -0.8843      0.9282  C       1  LIG       0.0000
     5  N5        -1.1163      0.1973      1.4746  N       1  LIG       0.0000
     6  C6        -0.8977      1.3706      0.5820  C       1  LIG       0.0000
     7  C7         0.4145      0.5574      0.9795  C       1  LIG       0.0000
     8  C8         1.1548     -0.6424      1.5639  C       1  LIG       0.0000
     9  O9         2.1140     -1.1706      2.1691  O       1  LIG       0.0000
    10  H10       -2.2290     -0.3011     -1.4106  H       1  LIG       0.0000
    11  H11        0.1403     -0.4225     -2.6558  H       1  LIG       0.0000
    12  H12        0.3994      1.0000     -1.4567  H       1  LIG       0.0000
    13  H13        1.2370     -1.1749     -1.2152  H       1  LIG       0.0000
    14  H14        1.4484     -0.4993      0.4033  H       1  LIG       0.0000
    15  H15       -1.0027     -1.5123      1.2111  H       1  LIG       0.0000
    16  H16       -1.2958      1.1493     -0.3891  H       1  LIG       0.0000
    17  H17       -0.9804      2.3131      1.0352  H       1  LIG       0.0000
    18  H18        1.3538      0.8755      0.4970  H       1  LIG       0.0000
@<TRIPOS>BOND
    1     2    11  1
    2     3    14  1
    3     4    15  1
    4     1    10  1
    5     1     2  1
    6     8     9  2
    7     2     3  1
    8     2    12  1
    9     3     4  1
   10     3    13  1
   11     4     8  1
   12     4     5  1
   13     7     8  1
   14     5     7  1
   15     5     6  1
   16     7    18  1
   17     6     7  1
   18     6    17  1
   19     6    16  1
