@<TRIPOS>MOLECULE
generated_molecule
18 22 0 0 0
SMALL
NO_CHARGES

@<TRIPOS>ATOM
     1  C1        -1.5785      1.9988      0.3246  C       1  LIG       0.0000
     2  C2        -1.2211      0.4672      0.4525  C       1  LIG       0.0000
     3  N3        -0.2501      1.5446      0.0341  N       1  LIG       0.0000
     4  C4         0.9521      1.0786     -0.4530  C       1  LIG       0.0000
     5  C5         0.8482     -0.3122     -1.0373  C       1  LIG       0.0000
     6  C6         1.1733     -1.4765     -0.0351  C       1  LIG       0.0000
     7  C7        -0.2722     -2.0081     -0.0425  C       1  LIG       0.0000
     8  C8        -0.1949     -0.5290      0.0396  C       1  LIG       0.0000
     9  C9         1.1452     -0.0293      0.5512  C       1  LIG       0.0000
    10  H10       -2.5433      1.8956      0.8645  H       1  LIG       0.0000
    11  H11       -1.3957      2.9719     -0.1113  H       1  LIG       0.0000
    12  H12       -2.0921     -0.0075      0.9431  H       1  LIG       0.0000
    13  H13        1.6967      1.7793     -0.8025  H       1  LIG       0.0000
    14  H14        1.1187     -0.5443     -2.0635  H       1  LIG       0.0000
    15  H15        1.9349     -2.2206      0.1969  H       1  LIG       0.0000
    16  H16       -0.5919     -2.5377      0.8525  H       1  LIG       0.0000
    17  H17       -0.5356     -2.4466     -0.9951  H       1  LIG       0.0000
    18  H18        1.8064      0.3759      1.2813  H       1  LIG       0.0000
@<TRIPOS>BOND
    1     6    15  1
    2     7    17  1
    3     6     7  1
    4     5     6  1
    5     6     9  1
    6     5    14  1
    7     7    16  1
    8     7     8  1
    9     5     8  1
   10     4     5  1
   11     8     9  1
   12     4     9  1
   13     9    18  1
   14     4    13  1
   15     2     8  1
   16     3     4  1
   17     1    11  1
   18     2     3  1
   19     1     2  1
   20     2    12  1
   21     1     3  1
   22     1    10  1
