@<TRIPOS>MOLECULE
generated_molecule
19 21 0 0 0
SMALL
NO_CHARGES

@<TRIPOS>ATOM
     1  C1         0.2246      0.1654      1.5358  C       1  LIG       0.0000
     2  C2         1.1255      1.1986      0.7790  C       1  LIG       0.0000
     3  C3         0.7717      0.9021     -0.6671  C       1  LIG       0.0000
     4  O4         0.9515     -0.2636     -0.0199  O       1  LIG       0.0000
     5  C5         0.1839     -1.1679     -0.7501  C       1  LIG       0.0000
     6  C6        -1.3197     -1.2149     -0.5392  C       1  LIG       0.0000
     7  C7        -1.1000     -0.2141      0.7210  C       1  LIG       0.0000
     8  O8        -1.2329     -0.7359     -1.8504  O       1  LIG       0.0000
     9  C9        -0.0343      0.0201     -1.7328  C       1  LIG       0.0000
    10  H10        0.1311     -0.8743      1.8585  H       1  LIG       0.0000
    11  H11        0.6667      0.7442      2.3597  H       1  LIG       0.0000
    12  H12        2.1982      1.2244      0.6000  H       1  LIG       0.0000
    13  H13        0.9295      2.1048      1.3521  H       1  LIG       0.0000
    14  H14        0.8753      1.7406     -1.3845  H       1  LIG       0.0000
    15  H15        0.5726     -2.1563     -0.7671  H       1  LIG       0.0000
    16  H16       -2.0309     -2.0444     -0.5351  H       1  LIG       0.0000
    17  H17       -1.4886      0.5384      0.0553  H       1  LIG       0.0000
    18  H18       -1.5080     -0.5388      1.6224  H       1  LIG       0.0000
    19  H19        0.0838      0.5717     -2.6376  H       1  LIG       0.0000
@<TRIPOS>BOND
    1     1    11  1
    2     2    12  1
    3     7    18  1
    4     2    13  1
    5     1     2  1
    6     1     7  1
    7     1    10  1
    8     2     3  1
    9     7    17  1
   10     6     7  1
   11     6     8  1
   12     8     9  1
   13     6    16  1
   14     5     6  1
   15     3    14  1
   16     3     9  1
   17     3     4  1
   18     9    19  1
   19     5     9  1
   20     4     5  1
   21     5    15  1
