@<TRIPOS>MOLECULE
generated_molecule
21 22 0 0 0
SMALL
NO_CHARGES

@<TRIPOS>ATOM
     1  O1        -1.1318      2.6716      1.3157  O       1  LIG       0.0000
     2  C2         0.1278      2.2386      0.9193  C       1  LIG       0.0000
     3  C3         0.4368      1.7511     -0.5138  C       1  LIG       0.0000
     4  C4         0.5628      0.2056     -0.1957  C       1  LIG       0.0000
     5  O5         1.4127     -0.3220     -1.0726  O       1  LIG       0.0000
     6  C6         0.2640      0.7160      1.1881  C       1  LIG       0.0000
     7  C7        -0.0987     -1.1741     -0.0256  C       1  LIG       0.0000
     8  C8         0.1930     -2.3980     -0.9959  C       1  LIG       0.0000
     9  C9        -1.1548     -2.2836     -0.4062  C       1  LIG       0.0000
    10  H10       -2.0223      2.4101      1.4853  H       1  LIG       0.0000
    11  H11        0.7510      3.0105      1.3718  H       1  LIG       0.0000
    12  H12        1.3708      2.1695     -0.9195  H       1  LIG       0.0000
    13  H13       -0.4010      2.0557     -1.1382  H       1  LIG       0.0000
    14  H14        1.7818     -0.5795     -1.9210  H       1  LIG       0.0000
    15  H15       -0.4241     -0.0955      1.3104  H       1  LIG       0.0000
    16  H16        0.8667      0.9624      2.0692  H       1  LIG       0.0000
    17  H17       -0.2406     -0.7999      0.9519  H       1  LIG       0.0000
    18  H18        0.0206     -3.4645     -1.0878  H       1  LIG       0.0000
    19  H19        0.9959     -2.0127     -1.6134  H       1  LIG       0.0000
    20  H20       -1.6527     -2.3482      0.5482  H       1  LIG       0.0000
    21  H21       -1.6581     -2.7132     -1.2702  H       1  LIG       0.0000
@<TRIPOS>BOND
    1     2    11  1
    2     6    15  1
    3     6    16  1
    4     2     6  1
    5     4     6  1
    6     1     2  1
    7     2     3  1
    8     1    10  1
    9     3    12  1
   10     3     4  1
   11     3    13  1
   12     4     5  1
   13     4     7  1
   14     5    14  1
   15     7    17  1
   16     7     9  1
   17     7     8  1
   18     9    20  1
   19     9    21  1
   20     8     9  1
   21     8    19  1
   22     8    18  1
