@<TRIPOS>MOLECULE
generated_molecule
18 19 0 0 0
SMALL
NO_CHARGES

@<TRIPOS>ATOM
     1  C1         1.8299      1.3021      1.1859  C       1  LIG       0.0000
     2  O2         0.7856      0.4392      1.3516  O       1  LIG       0.0000
     3  C3        -0.2761     -0.2517      1.3100  C       1  LIG       0.0000
     4  C4        -1.7007     -0.1285      0.9123  C       1  LIG       0.0000
     5  C5        -0.6560     -0.5245     -0.1898  C       1  LIG       0.0000
     6  C6        -0.4852     -1.7012     -1.2398  C       1  LIG       0.0000
     7  O7        -0.6773     -0.9730     -2.4272  O       1  LIG       0.0000
     8  C8        -0.3853     -0.0299     -1.5734  C       1  LIG       0.0000
     9  N9         0.1457      1.0760     -2.0468  N       1  LIG       0.0000
    10  H10        2.4274      0.9068      0.3600  H       1  LIG       0.0000
    11  H11        2.4523      1.4031      2.1027  H       1  LIG       0.0000
    12  H12        1.3871      2.2960      0.9403  H       1  LIG       0.0000
    13  H13       -0.3443     -0.6294      2.3279  H       1  LIG       0.0000
    14  H14       -1.9400      0.7372      1.5301  H       1  LIG       0.0000
    15  H15       -2.5442     -0.7943      0.7623  H       1  LIG       0.0000
    16  H16       -1.0807     -2.3312     -1.8417  H       1  LIG       0.0000
    17  H17        0.3293     -2.1074     -0.6622  H       1  LIG       0.0000
    18  H18        0.7325      1.3109     -2.8022  H       1  LIG       0.0000
@<TRIPOS>BOND
    1     9    18  1
    2     8     9  1
    3     7     8  1
    4     5     8  1
    5     6     7  1
    6     3    13  1
    7     5     6  1
    8     3     5  1
    9     4     5  1
   10     4    14  1
   11     6    17  1
   12     6    16  1
   13     3     4  1
   14     2     3  1
   15     4    15  1
   16     1    10  1
   17     1    11  1
   18     1     2  1
   19     1    12  1
