@<TRIPOS>MOLECULE
generated_molecule
19 19 0 0 0
SMALL
NO_CHARGES

@<TRIPOS>ATOM
     1  C1        -0.7766      0.7858     -1.3200  C       1  LIG       0.0000
     2  C2        -0.1247      0.1643     -0.0170  C       1  LIG       0.0000
     3  C3         0.2940      0.1297     -1.5827  C       1  LIG       0.0000
     4  C4         1.0213     -1.1833     -1.7995  C       1  LIG       0.0000
     5  O5         1.1093     -1.8368     -2.8749  O       1  LIG       0.0000
     6  O6         0.8190      0.1772      0.9781  O       1  LIG       0.0000
     7  C7         0.6173      0.2551      2.2537  C       1  LIG       0.0000
     8  C8        -0.5844     -0.1360      1.4029  C       1  LIG       0.0000
     9  O9        -0.7501     -0.5662      2.6930  O       1  LIG       0.0000
    10  H10       -0.2127      1.5773     -1.6413  H       1  LIG       0.0000
    11  H11       -0.3697      0.4583     -2.3221  H       1  LIG       0.0000
    12  H12       -1.8892      0.7699     -1.1838  H       1  LIG       0.0000
    13  H13       -0.4404      0.2073     -2.4407  H       1  LIG       0.0000
    14  H14        0.7548      1.0854     -1.7732  H       1  LIG       0.0000
    15  H15        1.4494     -1.5866     -0.9021  H       1  LIG       0.0000
    16  H16        1.5482     -0.1571      2.5808  H       1  LIG       0.0000
    17  H17        0.1493      0.8740      3.0788  H       1  LIG       0.0000
    18  H18       -1.6205     -0.3033      1.1327  H       1  LIG       0.0000
    19  H19       -0.9943     -0.7149      3.7375  H       1  LIG       0.0000
@<TRIPOS>BOND
    1     4    15  1
    2     4     5  2
    3     3     4  1
    4     2     6  1
    5     6     7  1
    6     1    11  1
    7     3    13  1
    8     2     3  1
    9     3    14  1
   10     7    16  1
   11     1     2  1
   12     2     8  1
   13     1    10  1
   14     1    12  1
   15     7    17  1
   16     7     8  1
   17     8    18  1
   18     8     9  1
   19     9    19  1
