@<TRIPOS>MOLECULE
generated_molecule
21 23 0 0 0
SMALL
NO_CHARGES

@<TRIPOS>ATOM
     1  O1        -0.4525     -1.4923      2.7477  O       1  LIG       0.0000
     2  C2         0.4533     -1.1096      1.7509  C       1  LIG       0.0000
     3  C3         0.9625      0.1940      1.1933  C       1  LIG       0.0000
     4  C4         0.5054      0.2153     -0.2584  C       1  LIG       0.0000
     5  C5         0.3611     -0.1427     -1.7207  C       1  LIG       0.0000
     6  C6        -0.8728     -0.5326     -0.9287  C       1  LIG       0.0000
     7  C7        -1.0966      0.9952     -1.2294  C       1  LIG       0.0000
     8  C8         0.2410      1.6100     -0.7775  C       1  LIG       0.0000
     9  C9        -0.0776     -1.0622      0.3003  C       1  LIG       0.0000
    10  H10       -1.1605     -1.5160      3.4328  H       1  LIG       0.0000
    11  H11        1.1682     -1.7065      2.3808  H       1  LIG       0.0000
    12  H12        1.8988      0.4795      0.7777  H       1  LIG       0.0000
    13  H13        0.6105      0.7527      2.0623  H       1  LIG       0.0000
    14  H14        1.1008      0.5694     -1.9997  H       1  LIG       0.0000
    15  H15        0.0677     -0.8432     -2.5019  H       1  LIG       0.0000
    16  H16       -1.6800     -1.2501     -1.1085  H       1  LIG       0.0000
    17  H17       -2.1239      0.8974     -0.8860  H       1  LIG       0.0000
    18  H18       -0.9408      1.7045     -2.0607  H       1  LIG       0.0000
    19  H19       -0.2352      2.5967     -0.8004  H       1  LIG       0.0000
    20  H20        1.3144      1.7990     -0.8111  H       1  LIG       0.0000
    21  H21       -0.0438     -2.1585      0.4371  H       1  LIG       0.0000
@<TRIPOS>BOND
    1     2    11  1
    2     6    16  1
    3     9    21  1
    4     1     2  1
    5     1    10  1
    6     2     9  1
    7     2     3  1
    8     6     9  1
    9     4     9  1
   10     6     7  1
   11     5     6  1
   12     7    17  1
   13     7    18  1
   14     7     8  1
   15     5    14  1
   16     3    12  1
   17     4     5  1
   18     5    15  1
   19     3     4  1
   20     3    13  1
   21     4     8  1
   22     8    20  1
   23     8    19  1
