@<TRIPOS>MOLECULE
generated_molecule
17 17 0 0 0
SMALL
NO_CHARGES

@<TRIPOS>ATOM
     1  C1        -1.0698     -1.0658      2.8244  C       1  LIG       0.0000
     2  N2        -0.4249     -0.2218      1.8017  N       1  LIG       0.0000
     3  C3        -0.8796      0.4652      0.4746  C       1  LIG       0.0000
     4  C4        -0.0983      0.7322     -0.8323  C       1  LIG       0.0000
     5  N5        -0.0497     -0.3797     -1.6069  N       1  LIG       0.0000
     6  C6         0.8707     -0.4410     -2.5879  C       1  LIG       0.0000
     7  C7         1.7470      0.6891     -2.8145  C       1  LIG       0.0000
     8  N8         1.6206      1.8560     -2.1013  N       1  LIG       0.0000
     9  N9         0.6944      1.8571     -1.0694  N       1  LIG       0.0000
    10  H10       -0.2405     -1.4284      3.5138  H       1  LIG       0.0000
    11  H11       -1.5839     -1.8788      2.3338  H       1  LIG       0.0000
    12  H12       -1.8223     -0.5048      3.4040  H       1  LIG       0.0000
    13  H13        0.4937     -0.2060      2.2095  H       1  LIG       0.0000
    14  H14       -1.1180      1.3863      0.9836  H       1  LIG       0.0000
    15  H15       -1.5714     -0.1779      0.0107  H       1  LIG       0.0000
    16  H16        0.8365     -1.3376     -3.0737  H       1  LIG       0.0000
    17  H17        2.5956      0.6559     -3.4700  H       1  LIG       0.0000
@<TRIPOS>BOND
    1     6    16  1
    2     1    10  1
    3     1    11  1
    4     5     6  ar
    5     6     7  ar
    6     7    17  1
    7     1    12  1
    8     1     2  1
    9     4     5  ar
   10     7     8  ar
   11     2    13  1
   12     2     3  1
   13     4     9  ar
   14     3     4  1
   15     8     9  ar
   16     3    15  1
   17     3    14  1
