@<TRIPOS>MOLECULE
generated_molecule
21 22 0 0 0
SMALL
NO_CHARGES

@<TRIPOS>ATOM
     1  C1        -2.1310      1.6605      0.1050  C       1  LIG       0.0000
     2  C2        -0.9923      1.2384     -0.9226  C       1  LIG       0.0000
     3  C3         0.1804      0.4566     -0.4868  C       1  LIG       0.0000
     4  C4         1.5678     -0.2184     -0.2965  C       1  LIG       0.0000
     5  C5         0.8784     -1.4544      0.4076  C       1  LIG       0.0000
     6  C6        -0.6277     -1.6363     -0.0553  C       1  LIG       0.0000
     7  O7        -0.7714     -0.4663     -0.8481  O       1  LIG       0.0000
     8  C8         1.9698     -0.4628      0.9768  C       1  LIG       0.0000
     9  O9         1.2515      0.6752      0.4449  O       1  LIG       0.0000
    10  H10       -1.8389      2.5883      0.6289  H       1  LIG       0.0000
    11  H11       -2.2800      0.9228      0.9327  H       1  LIG       0.0000
    12  H12       -3.0333      1.7496     -0.5207  H       1  LIG       0.0000
    13  H13       -1.4382      0.5836     -1.6278  H       1  LIG       0.0000
    14  H14       -0.5465      2.1409     -1.2481  H       1  LIG       0.0000
    15  H15        2.3097     -0.8658     -0.7452  H       1  LIG       0.0000
    16  H16        1.9792      0.7534     -0.1435  H       1  LIG       0.0000
    17  H17        0.8029     -2.4507      0.7763  H       1  LIG       0.0000
    18  H18       -0.4915     -2.6280      0.3447  H       1  LIG       0.0000
    19  H19       -1.6858     -1.4372     -0.2351  H       1  LIG       0.0000
    20  H20        2.8764     -0.7067      0.4621  H       1  LIG       0.0000
    21  H21        2.0205     -0.4426      2.0506  H       1  LIG       0.0000
@<TRIPOS>BOND
    1     6    18  1
    2     6    19  1
    3     5     6  1
    4     6     7  1
    5     5    17  1
    6     8    21  1
    7     5     8  1
    8     4     5  1
    9     3     7  1
   10     8    20  1
   11     8     9  1
   12     4    16  1
   13     3     4  1
   14     4    15  1
   15     3     9  1
   16     2     3  1
   17     1    11  1
   18     1     2  1
   19     2    14  1
   20     2    13  1
   21     1    10  1
   22     1    12  1
