@<TRIPOS>MOLECULE
generated_molecule
17 17 0 0 0
SMALL
NO_CHARGES

@<TRIPOS>ATOM
     1  C1         1.3558     -1.9834     -0.5203  C       1  LIG       0.0000
     2  N2         1.0164     -0.6657      0.0470  N       1  LIG       0.0000
     3  C3         1.4416     -0.1101      1.2824  C       1  LIG       0.0000
     4  N4         0.8182      0.9468      1.8500  N       1  LIG       0.0000
     5  C5        -0.2910      1.4598      1.2494  C       1  LIG       0.0000
     6  O6        -0.8068      2.3368      1.9991  O       1  LIG       0.0000
     7  C7        -0.7403      0.9096     -0.0118  C       1  LIG       0.0000
     8  C8        -2.0200      1.2039     -0.7348  C       1  LIG       0.0000
     9  C9        -0.0268     -0.1092     -0.6564  C       1  LIG       0.0000
    10  H10        2.2471     -2.3846     -0.0621  H       1  LIG       0.0000
    11  H11        0.5239     -2.6917     -0.3048  H       1  LIG       0.0000
    12  H12        1.4409     -1.8260     -1.6122  H       1  LIG       0.0000
    13  H13        2.2090     -0.4455      1.8640  H       1  LIG       0.0000
    14  H14       -2.2382      0.3112     -1.3249  H       1  LIG       0.0000
    15  H15       -2.8448      1.3922     -0.0387  H       1  LIG       0.0000
    16  H16       -1.8983      2.0800     -1.3683  H       1  LIG       0.0000
    17  H17       -0.1868     -0.4239     -1.6577  H       1  LIG       0.0000
@<TRIPOS>BOND
    1     3    13  1
    2     3     4  ar
    3     4     5  ar
    4     2     3  ar
    5     1    11  1
    6     5     6  2
    7     5     7  ar
    8     1     2  1
    9     2     9  ar
   10     1    10  1
   11     1    12  1
   12     7     9  ar
   13     9    17  1
   14     7     8  1
   15     8    14  1
   16     8    16  1
   17     8    15  1
