@<TRIPOS>MOLECULE
generated_molecule
18 17 0 0 0
SMALL
NO_CHARGES

@<TRIPOS>ATOM
     1  C1         0.0986     -0.2604     -1.5525  C       1  LIG       0.0000
     2  C2         0.4732     -1.3250     -0.5016  C       1  LIG       0.0000
     3  O3        -0.4115     -0.6466      0.2918  O       1  LIG       0.0000
     4  C4        -1.2185      0.2764      0.7080  C       1  LIG       0.0000
     5  O5        -2.3107     -0.2201      0.9074  O       1  LIG       0.0000
     6  C6        -0.6800      1.7083      0.8907  C       1  LIG       0.0000
     7  N7         0.1431      2.2387     -0.2431  N       1  LIG       0.0000
     8  C8         0.8583     -2.2059      0.6392  C       1  LIG       0.0000
     9  C9         1.1642     -2.9435      1.5791  C       1  LIG       0.0000
    10  H10       -0.3122      0.6119     -1.0754  H       1  LIG       0.0000
    11  H11        0.9980      0.0590     -2.1463  H       1  LIG       0.0000
    12  H12       -0.6543     -0.7067     -2.2262  H       1  LIG       0.0000
    13  H13        1.0919     -1.9144     -1.2114  H       1  LIG       0.0000
    14  H14       -0.0485      1.7032      1.7616  H       1  LIG       0.0000
    15  H15       -1.5277      2.3551      1.0650  H       1  LIG       0.0000
    16  H16        0.4965      3.1978     -0.2307  H       1  LIG       0.0000
    17  H17        0.4134      1.6769     -1.0818  H       1  LIG       0.0000
    18  H18        1.4264     -3.6047      2.4262  H       1  LIG       0.0000
@<TRIPOS>BOND
    1     9    18  1
    2     8     9  3
    3     2     8  1
    4     1    11  1
    5     1    10  1
    6     1     2  1
    7     1    12  1
    8     2     3  1
    9     2    13  1
   10     3     4  1
   11     6    14  1
   12     6    15  1
   13     4     6  1
   14     6     7  1
   15     4     5  2
   16     7    17  1
   17     7    16  1
