@<TRIPOS>MOLECULE
generated_molecule
17 17 0 0 0
SMALL
NO_CHARGES

@<TRIPOS>ATOM
     1  O1        -2.0230     -0.5264      1.5188  O       1  LIG       0.0000
     2  C2        -1.0489     -1.0229      0.6527  C       1  LIG       0.0000
     3  C3         0.1845     -1.9308      0.4697  C       1  LIG       0.0000
     4  O4         1.2134     -1.1217      0.0503  O       1  LIG       0.0000
     5  C5         1.2863      0.1756     -0.3468  C       1  LIG       0.0000
     6  C6         1.4326      1.5591     -1.0224  C       1  LIG       0.0000
     7  C7         1.5373      2.6709     -1.5816  C       1  LIG       0.0000
     8  C8        -0.2059      0.1898      0.1711  C       1  LIG       0.0000
     9  O9        -0.2368      1.2749     -0.7071  O       1  LIG       0.0000
    10  H10       -2.8396     -0.3416      2.0954  H       1  LIG       0.0000
    11  H11       -1.9849     -1.6690      0.5272  H       1  LIG       0.0000
    12  H12        1.0750     -2.4651      0.3046  H       1  LIG       0.0000
    13  H13       -0.6637     -2.5657      0.7910  H       1  LIG       0.0000
    14  H14        2.3080     -0.0117     -0.5108  H       1  LIG       0.0000
    15  H15        1.5717      3.6674     -2.0791  H       1  LIG       0.0000
    16  H16       -0.9319      0.2204      0.9164  H       1  LIG       0.0000
    17  H17       -0.6740      1.8968     -1.2493  H       1  LIG       0.0000
@<TRIPOS>BOND
    1     8    16  1
    2     8     9  1
    3     9    17  1
    4     2    11  1
    5     2     8  1
    6     5     8  1
    7     1    10  1
    8     1     2  1
    9     2     3  1
   10     5    14  1
   11     4     5  1
   12     5     6  1
   13     3    12  1
   14     3     4  1
   15     3    13  1
   16     6     7  3
   17     7    15  1
