@<TRIPOS>MOLECULE
generated_molecule
20 20 0 0 0
SMALL
NO_CHARGES

@<TRIPOS>ATOM
     1  C1         0.9335      1.7065      0.6718  C       1  LIG       0.0000
     2  C2         0.0314      1.0307     -0.3753  C       1  LIG       0.0000
     3  C3        -1.5148      1.2361      0.1151  C       1  LIG       0.0000
     4  O4        -2.2191      0.2529      0.7042  O       1  LIG       0.0000
     5  C5         0.7053     -0.3428     -0.7430  C       1  LIG       0.0000
     6  C6         1.3858     -1.7592     -1.0777  C       1  LIG       0.0000
     7  C7         0.4155     -1.7526      0.0289  C       1  LIG       0.0000
     8  O8        -0.7281     -1.7465      0.7533  O       1  LIG       0.0000
     9  H9         1.9560      1.3526      0.5762  H       1  LIG       0.0000
    10  H10        0.5693      1.4947      1.6813  H       1  LIG       0.0000
    11  H11        0.9131      2.8267      0.5017  H       1  LIG       0.0000
    12  H12        0.0039      1.5288     -1.3417  H       1  LIG       0.0000
    13  H13       -1.3259      2.2301      0.5410  H       1  LIG       0.0000
    14  H14       -2.4907      1.0994     -0.3953  H       1  LIG       0.0000
    15  H15       -2.5488     -0.6264      1.0702  H       1  LIG       0.0000
    16  H16        1.2112      0.2198     -1.4943  H       1  LIG       0.0000
    17  H17        1.2312     -2.0133     -2.1348  H       1  LIG       0.0000
    18  H18        2.2427     -2.2725     -0.6135  H       1  LIG       0.0000
    19  H19        0.7945     -2.7372      0.3307  H       1  LIG       0.0000
    20  H20       -1.5658     -1.7276      1.2014  H       1  LIG       0.0000
@<TRIPOS>BOND
    1     4    15  1
    2     3     4  1
    3     3    14  1
    4     3    13  1
    5     2     3  1
    6     1    10  1
    7     2    12  1
    8     1     2  1
    9     2     5  1
   10     1     9  1
   11     1    11  1
   12     8    20  1
   13     7     8  1
   14     5    16  1
   15     5     7  1
   16     5     6  1
   17     7    19  1
   18     6     7  1
   19     6    18  1
   20     6    17  1
