@<TRIPOS>MOLECULE
generated_molecule
15 15 0 0 0
SMALL
NO_CHARGES

@<TRIPOS>ATOM
     1  N1        -1.4482      0.5262     -1.7338  N       1  LIG       0.0000
     2  C2        -1.2341     -0.3839     -0.7681  C       1  LIG       0.0000
     3  N3        -1.9714     -0.4593      0.3744  N       1  LIG       0.0000
     4  N4        -1.0686     -0.9131      1.2533  N       1  LIG       0.0000
     5  C5         0.1559     -0.9500      0.5041  C       1  LIG       0.0000
     6  C6         1.4551     -0.5049      0.6346  C       1  LIG       0.0000
     7  C7         1.4832      1.0644      0.3505  C       1  LIG       0.0000
     8  O8         2.4460      1.7887      0.4554  O       1  LIG       0.0000
     9  N9         0.0837     -0.7141     -0.7837  N       1  LIG       0.0000
    10  H10       -0.9998      0.4048     -2.6135  H       1  LIG       0.0000
    11  H11       -1.6959      1.3762     -1.2819  H       1  LIG       0.0000
    12  H12       -1.4860     -1.0532      2.1391  H       1  LIG       0.0000
    13  H13        1.9484     -0.9703     -0.1767  H       1  LIG       0.0000
    14  H14        1.8508     -0.6951      1.5990  H       1  LIG       0.0000
    15  H15        0.4808      1.4835      0.0474  H       1  LIG       0.0000
@<TRIPOS>BOND
    1     7     8  2
    2     7    15  1
    3     6     7  1
    4     4    12  1
    5     3     4  ar
    6     2     3  ar
    7     4     5  ar
    8     1     2  1
    9     1    11  1
   10     1    10  1
   11     2     9  ar
   12     5     6  1
   13     5     9  ar
   14     6    14  1
   15     6    13  1
