@<TRIPOS>MOLECULE
generated_molecule
17 16 0 0 0
SMALL
NO_CHARGES

@<TRIPOS>ATOM
     1  C1        -2.5879      2.4762      0.4503  C       1  LIG       0.0000
     2  C2        -1.3828      1.5087      0.6997  C       1  LIG       0.0000
     3  C3        -0.4420      0.7678      0.8106  C       1  LIG       0.0000
     4  C4         0.7662     -0.1398      0.8274  C       1  LIG       0.0000
     5  O5         1.6185      0.1264      1.6275  O       1  LIG       0.0000
     6  C6         1.0288     -1.3718     -0.0768  C       1  LIG       0.0000
     7  C7         2.2604     -0.6377     -0.6375  C       1  LIG       0.0000
     8  C8        -0.1775     -2.1084     -0.6912  C       1  LIG       0.0000
     9  O9        -1.3675     -1.7162     -0.7216  O       1  LIG       0.0000
    10  H10       -2.7372      3.2311      1.2805  H       1  LIG       0.0000
    11  H11       -2.2453      2.9422     -0.4756  H       1  LIG       0.0000
    12  H12       -3.5819      1.9541      0.3250  H       1  LIG       0.0000
    13  H13        1.2105     -2.4607      0.0608  H       1  LIG       0.0000
    14  H14        2.6689     -1.2136     -1.5171  H       1  LIG       0.0000
    15  H15        2.9902     -0.5836      0.1678  H       1  LIG       0.0000
    16  H16        2.0089      0.3579     -0.9840  H       1  LIG       0.0000
    17  H17       -0.0301     -3.1325     -1.1459  H       1  LIG       0.0000
@<TRIPOS>BOND
    1     8     9  2
    2     1    10  1
    3     8    17  1
    4     6     8  1
    5     1    11  1
    6     1     2  1
    7     1    12  1
    8     2     3  3
    9     3     4  1
   10     6    13  1
   11     4     6  1
   12     6     7  1
   13     4     5  2
   14     7    14  1
   15     7    16  1
   16     7    15  1
