@<TRIPOS>MOLECULE
generated_molecule
19 20 0 0 0
SMALL
NO_CHARGES

@<TRIPOS>ATOM
     1  C1        -0.6135      0.4033      2.1402  C       1  LIG       0.0000
     2  C2         0.1157     -0.0814      0.8116  C       1  LIG       0.0000
     3  C3         0.2109     -1.2331     -0.2462  C       1  LIG       0.0000
     4  C4        -0.1602     -0.9447     -1.7082  C       1  LIG       0.0000
     5  C5        -0.1480      0.5863     -1.7562  C       1  LIG       0.0000
     6  N6         0.0701      1.9991     -1.2326  N       1  LIG       0.0000
     7  C7        -0.2615      0.9774     -0.2168  C       1  LIG       0.0000
     8  C8         1.2894     -0.6305      1.5325  C       1  LIG       0.0000
     9  N9         2.2137     -1.1440      2.1096  N       1  LIG       0.0000
    10  H10       -0.6439      1.4685      2.2911  H       1  LIG       0.0000
    11  H11       -0.0526     -0.1208      2.9512  H       1  LIG       0.0000
    12  H12       -1.6764      0.1843      2.1541  H       1  LIG       0.0000
    13  H13       -0.1824     -2.0995     -0.7520  H       1  LIG       0.0000
    14  H14        0.9455     -1.4328      0.5637  H       1  LIG       0.0000
    15  H15        0.2748     -0.9423     -2.7135  H       1  LIG       0.0000
    16  H16       -0.9533     -1.7093     -1.7209  H       1  LIG       0.0000
    17  H17       -0.2176      0.6436     -2.8446  H       1  LIG       0.0000
    18  H18        0.7137      2.5009     -1.7441  H       1  LIG       0.0000
    19  H19       -0.9244      1.5752      0.3812  H       1  LIG       0.0000
@<TRIPOS>BOND
    1     3    13  1
    2     3    14  1
    3     4    16  1
    4     3     4  1
    5     2     3  1
    6     4    15  1
    7     1    11  1
    8     4     5  1
    9     8     9  3
   10     2     8  1
   11     1     2  1
   12     2     7  1
   13     1    10  1
   14     1    12  1
   15     5     6  1
   16     5     7  1
   17     5    17  1
   18     6     7  1
   19     6    18  1
   20     7    19  1
