@<TRIPOS>MOLECULE
generated_molecule
17 19 0 0 0
SMALL
NO_CHARGES

@<TRIPOS>ATOM
     1  O1         2.3898      0.2261     -0.9805  O       1  LIG       0.0000
     2  C2         1.1986      0.1292     -0.6865  C       1  LIG       0.0000
     3  C3        -0.2284      0.4736     -1.0206  C       1  LIG       0.0000
     4  C4        -0.9379      1.7117     -0.4690  C       1  LIG       0.0000
     5  N5        -1.3391      1.2078     -1.7400  N       1  LIG       0.0000
     6  C6        -0.0383     -1.0349     -0.9319  C       1  LIG       0.0000
     7  C7         0.5207     -0.6126      0.4231  C       1  LIG       0.0000
     8  C8         1.0690     -0.8781      1.8084  C       1  LIG       0.0000
     9  N9        -0.2590     -0.2603      1.6300  N       1  LIG       0.0000
    10  H10       -0.9995      1.4484      0.5824  H       1  LIG       0.0000
    11  H11       -1.0141      2.7313     -0.7320  H       1  LIG       0.0000
    12  H12       -2.0805      0.5764     -1.9501  H       1  LIG       0.0000
    13  H13        0.3496     -1.1718     -1.9072  H       1  LIG       0.0000
    14  H14       -0.6991     -1.8342     -0.6957  H       1  LIG       0.0000
    15  H15        1.8934     -0.2663      2.1019  H       1  LIG       0.0000
    16  H16        1.0412     -1.8895      2.2265  H       1  LIG       0.0000
    17  H17       -0.8662     -0.5568      2.3414  H       1  LIG       0.0000
@<TRIPOS>BOND
    1     4    11  1
    2     9    17  1
    3     4    10  1
    4     7     9  1
    5     8     9  1
    6     3     4  1
    7     4     5  1
    8     1     2  2
    9     6    13  1
   10     2     3  1
   11     2     7  1
   12     3     6  1
   13     3     5  1
   14     6     7  1
   15     7     8  1
   16     6    14  1
   17     8    16  1
   18     8    15  1
   19     5    12  1
