@<TRIPOS>MOLECULE
generated_molecule
11 10 0 0 0
SMALL
NO_CHARGES

@<TRIPOS>ATOM
     1  C1        -1.3526     -0.3120     -0.8372  C       1  LIG       0.0000
     2  C2         0.1340     -0.0987     -0.7991  C       1  LIG       0.0000
     3  O3         0.7760      0.0584     -1.8320  O       1  LIG       0.0000
     4  C4         0.7496     -0.0539      0.6256  C       1  LIG       0.0000
     5  O5         1.4948      0.8075      1.4598  O       1  LIG       0.0000
     6  H6        -1.7387      0.2208     -1.7226  H       1  LIG       0.0000
     7  H7        -1.5471     -1.3942     -0.8774  H       1  LIG       0.0000
     8  H8        -1.8042      0.0843      0.0771  H       1  LIG       0.0000
     9  H9         1.4552     -0.8375      0.5505  H       1  LIG       0.0000
    10  H10       -0.0965      0.1654      1.1953  H       1  LIG       0.0000
    11  H11        1.9295      1.3599      2.1600  H       1  LIG       0.0000
@<TRIPOS>BOND
    1     1     2  1
    2     1     6  1
    3     1     7  1
    4     1     8  1
    5     2     3  2
    6     2     4  1
    7     4     5  1
    8     4     9  1
    9     4    10  1
   10     5    11  1
