@<TRIPOS>MOLECULE
generated_molecule
20 20 0 0 0
SMALL
NO_CHARGES

@<TRIPOS>ATOM
     1  N1        -1.8320     -0.2067      1.8392  N       1  LIG       0.0000
     2  C2        -0.6759     -0.3176      1.5268  C       1  LIG       0.0000
     3  C3         0.8019     -0.5138      1.1803  C       1  LIG       0.0000
     4  C4         1.5256      0.6397      0.5044  C       1  LIG       0.0000
     5  C5         0.6117      1.2387     -0.5855  C       1  LIG       0.0000
     6  C6        -0.1126     -0.0234     -1.0656  C       1  LIG       0.0000
     7  C7        -0.9649      0.1813      0.2217  C       1  LIG       0.0000
     8  O8        -1.8464     -0.8083     -0.2720  O       1  LIG       0.0000
     9  C9        -1.2089     -1.1174     -1.4431  C       1  LIG       0.0000
    10  H10        1.1465     -0.8131      2.1753  H       1  LIG       0.0000
    11  H11        0.9118     -1.3397      0.4805  H       1  LIG       0.0000
    12  H12        2.4600      0.1807      0.9455  H       1  LIG       0.0000
    13  H13        1.9069      1.5824      0.2619  H       1  LIG       0.0000
    14  H14        1.3568      1.9826     -0.2970  H       1  LIG       0.0000
    15  H15       -0.1257      1.7657     -1.2199  H       1  LIG       0.0000
    16  H16        0.5655     -0.4111     -1.8299  H       1  LIG       0.0000
    17  H17       -0.5311     -0.1911      1.1206  H       1  LIG       0.0000
    18  H18       -1.2858      1.1988      0.2239  H       1  LIG       0.0000
    19  H19       -2.2140     -1.3389     -1.7062  H       1  LIG       0.0000
    20  H20       -0.4894     -1.6887     -2.0611  H       1  LIG       0.0000
@<TRIPOS>BOND
    1     7    18  1
    2     7    17  1
    3     7     8  1
    4     6     7  1
    5     8     9  1
    6     4    13  1
    7     3    10  1
    8     5    14  1
    9     1     2  3
   10     2     3  1
   11     9    19  1
   12     3     4  1
   13     4     5  1
   14     4    12  1
   15     3    11  1
   16     6     9  1
   17     9    20  1
   18     5     6  1
   19     6    16  1
   20     5    15  1
