@<TRIPOS>MOLECULE
generated_molecule
20 20 0 0 0
SMALL
NO_CHARGES

@<TRIPOS>ATOM
     1  C1        -0.8081     -0.2682      0.6573  C       1  LIG       0.0000
     2  O2         0.2833      0.1991      0.2025  O       1  LIG       0.0000
     3  C3         1.2274      0.7812     -0.4348  C       1  LIG       0.0000
     4  C4         2.5770      1.3446     -0.7926  C       1  LIG       0.0000
     5  C5        -0.0799     -0.0648     -0.3083  C       1  LIG       0.0000
     6  C6        -0.6480     -1.1212     -0.9715  C       1  LIG       0.0000
     7  C7        -1.6744     -1.5572     -0.1413  C       1  LIG       0.0000
     8  C8        -1.7486     -0.6980      0.9267  C       1  LIG       0.0000
     9  N9        -0.7655      0.2091      0.8282  N       1  LIG       0.0000
    10  H10       -0.5849     -1.2866      1.0012  H       1  LIG       0.0000
    11  H11       -1.5753     -0.2789     -0.1647  H       1  LIG       0.0000
    12  H12       -0.9893      0.4844      1.4162  H       1  LIG       0.0000
    13  H13        1.8192      1.4546     -0.5872  H       1  LIG       0.0000
    14  H14        2.6468      2.3622     -0.4120  H       1  LIG       0.0000
    15  H15        2.6562      1.3501     -1.8774  H       1  LIG       0.0000
    16  H16        3.3663      0.7455     -0.3610  H       1  LIG       0.0000
    17  H17       -0.4198     -1.4984     -1.9436  H       1  LIG       0.0000
    18  H18       -2.2918     -2.4507     -0.2333  H       1  LIG       0.0000
    19  H19       -2.4501     -0.6584      1.7308  H       1  LIG       0.0000
    20  H20       -0.5406      0.9517      1.4649  H       1  LIG       0.0000
@<TRIPOS>BOND
    1     4    16  1
    2     4    14  1
    3     4    15  1
    4     3     4  1
    5     6    17  1
    6     1    11  1
    7     3    13  1
    8     3     5  1
    9     2     3  1
   10     5     6  ar
   11     6     7  ar
   12     1    12  1
   13     1     2  1
   14     1    10  1
   15     5     9  ar
   16     7    18  1
   17     7     8  ar
   18     8     9  ar
   19     9    20  1
   20     8    19  1
