@<TRIPOS>MOLECULE
generated_molecule
16 16 0 0 0
SMALL
NO_CHARGES

@<TRIPOS>ATOM
     1  N1        -1.3627      1.9169      0.6588  N       1  LIG       0.0000
     2  H2        -0.4371      0.4569     -3.1669  H       1  LIG       0.0000
     3  H3        -0.8551      2.7197      0.1781  H       1  LIG       0.0000
     4  H4        -2.3866      1.8783      0.4275  H       1  LIG       0.0000
     5  C5        -0.5349      0.8732      1.4517  C       1  LIG       0.0000
     6  C6        -0.0579     -0.5781      0.9960  C       1  LIG       0.0000
     7  N7         0.2621     -1.9792      0.7743  N       1  LIG       0.0000
     8  C8         0.6868     -1.1106     -0.4135  C       1  LIG       0.0000
     9  C9         1.1012     -0.5867     -1.7653  C       1  LIG       0.0000
    10  O10        2.2021     -0.6966     -2.3140  O       1  LIG       0.0000
    11  O11        0.2481      0.0411     -2.6244  O       1  LIG       0.0000
    12  H12       -1.1681      0.6573      2.3370  H       1  LIG       0.0000
    13  H13        0.3158      1.5094      1.5925  H       1  LIG       0.0000
    14  H14       -0.3745     -0.8441      1.9999  H       1  LIG       0.0000
    15  H15        1.0821     -2.5306      0.9218  H       1  LIG       0.0000
    16  H16        1.2787     -1.7269     -1.0535  H       1  LIG       0.0000
@<TRIPOS>BOND
    1     1     4  1
    2     7    15  1
    3     1     3  1
    4     5    13  1
    5     1     5  1
    6     6     7  1
    7     7     8  1
    8     5     6  1
    9     5    12  1
   10     6    14  1
   11     6     8  1
   12     2    11  1
   13     8    16  1
   14     8     9  1
   15     9    11  1
   16     9    10  2
