@<TRIPOS>MOLECULE
generated_molecule
23 23 0 0 0
SMALL
NO_CHARGES

@<TRIPOS>ATOM
     1  C1         2.0063      2.0845     -0.4677  C       1  LIG       0.0000
     2  C2         0.4724      1.8004     -0.8330  C       1  LIG       0.0000
     3  C3        -1.0047      1.2230     -1.0365  C       1  LIG       0.0000
     4  C4        -1.0605      0.2407      0.1968  C       1  LIG       0.0000
     5  O5        -1.8776     -0.8931      0.4388  O       1  LIG       0.0000
     6  C6        -1.8162     -2.2527      0.3594  C       1  LIG       0.0000
     7  C7        -0.5010     -1.9621     -0.2408  C       1  LIG       0.0000
     8  C8        -0.1375     -0.9040      0.4838  C       1  LIG       0.0000
     9  C9         0.9320     -1.3353      1.4543  C       1  LIG       0.0000
    10  H10        2.5014      1.2004     -0.8506  H       1  LIG       0.0000
    11  H11        2.3905      3.0083     -0.9147  H       1  LIG       0.0000
    12  H12        2.1675      2.1265      0.6468  H       1  LIG       0.0000
    13  H13        1.0999      1.1384     -0.5891  H       1  LIG       0.0000
    14  H14        0.0188      2.7972     -1.0954  H       1  LIG       0.0000
    15  H15       -1.5979      0.6997     -1.6835  H       1  LIG       0.0000
    16  H16       -1.5847      2.0540     -1.4744  H       1  LIG       0.0000
    17  H17       -1.3619      1.1592      0.6105  H       1  LIG       0.0000
    18  H18       -2.6717     -2.5799     -0.2033  H       1  LIG       0.0000
    19  H19       -1.6074     -2.8642      1.2432  H       1  LIG       0.0000
    20  H20        0.1071     -2.2909     -1.0446  H       1  LIG       0.0000
    21  H21        0.8267     -2.4424      1.6321  H       1  LIG       0.0000
    22  H22        1.9070     -1.1962      0.9844  H       1  LIG       0.0000
    23  H23        0.7915     -0.8114      2.3833  H       1  LIG       0.0000
@<TRIPOS>BOND
    1     7    20  1
    2     9    21  1
    3     9    22  1
    4     7     8  2
    5     6     7  1
    6     8     9  1
    7     9    23  1
    8     6    19  1
    9     4     8  1
   10     6    18  1
   11     5     6  1
   12     3    15  1
   13     3    16  1
   14     3     4  1
   15     4     5  1
   16     4    17  1
   17     2     3  1
   18     1    11  1
   19     1    10  1
   20     1     2  1
   21     1    12  1
   22     2    14  1
   23     2    13  1
