@<TRIPOS>MOLECULE
generated_molecule
22 22 0 0 0
SMALL
NO_CHARGES

@<TRIPOS>ATOM
     1  C1        -0.1156     -2.5163     -0.3414  C       1  LIG       0.0000
     2  C2        -0.4849     -1.0508     -0.7542  C       1  LIG       0.0000
     3  C3        -0.3168     -1.0590     -2.2861  C       1  LIG       0.0000
     4  C4        -0.3872      0.3076     -1.5168  C       1  LIG       0.0000
     5  C5        -0.1451      1.3679     -0.3138  C       1  LIG       0.0000
     6  C6         0.2055      1.3629      1.2562  C       1  LIG       0.0000
     7  C7         1.5121      2.0641      1.5160  C       1  LIG       0.0000
     8  N8        -0.4046      0.9513      2.3399  N       1  LIG       0.0000
     9  O9        -1.1623     -0.0127      2.6235  O       1  LIG       0.0000
    10  H10       -0.9967     -2.8306      0.1965  H       1  LIG       0.0000
    11  H11        0.8002     -2.4568      0.2418  H       1  LIG       0.0000
    12  H12        0.0751     -3.2149     -1.2027  H       1  LIG       0.0000
    13  H13       -0.9276     -0.5446      0.0395  H       1  LIG       0.0000
    14  H14        0.0977     -0.5597     -3.1505  H       1  LIG       0.0000
    15  H15       -0.6332     -2.0766     -2.4010  H       1  LIG       0.0000
    16  H16       -0.5300      0.9359     -2.3736  H       1  LIG       0.0000
    17  H17       -0.9966      1.9461     -0.1282  H       1  LIG       0.0000
    18  H18        0.6155      1.5462     -0.9367  H       1  LIG       0.0000
    19  H19        2.2254      1.3641      1.9151  H       1  LIG       0.0000
    20  H20        1.8188      2.4371      0.5396  H       1  LIG       0.0000
    21  H21        1.3869      2.9180      2.1989  H       1  LIG       0.0000
    22  H22       -1.6366     -0.8793      2.5384  H       1  LIG       0.0000
@<TRIPOS>BOND
    1     1    11  1
    2     2    13  1
    3     3    14  1
    4     1     2  1
    5     1    12  1
    6     1    10  1
    7     2     3  1
    8     2     4  1
    9     3    15  1
   10     3     4  1
   11     4    16  1
   12     4     5  1
   13     5    17  1
   14     5    18  1
   15     5     6  1
   16     6     8  2
   17     6     7  1
   18     8     9  1
   19     7    19  1
   20     7    21  1
   21     7    20  1
   22     9    22  1
