@<TRIPOS>MOLECULE
generated_molecule
23 23 0 0 0
SMALL
NO_CHARGES

@<TRIPOS>ATOM
     1  C1         0.3220      1.2574     -0.6686  C       1  LIG       0.0000
     2  C2         1.0535      0.4684      0.4141  C       1  LIG       0.0000
     3  C3        -0.1961      0.0201      1.2226  C       1  LIG       0.0000
     4  O4        -1.3944     -0.2777      1.8068  O       1  LIG       0.0000
     5  C5        -2.3212     -0.9913      1.0621  C       1  LIG       0.0000
     6  C6        -1.8531     -0.5263     -0.3528  C       1  LIG       0.0000
     7  C7        -0.3004     -0.5566     -0.1952  C       1  LIG       0.0000
     8  O8         0.9963     -0.2946     -0.3056  O       1  LIG       0.0000
     9  C9         2.1925      0.1432     -0.8356  C       1  LIG       0.0000
    10  H10       -0.6540      0.8632     -0.7355  H       1  LIG       0.0000
    11  H11        0.9685      1.0166     -1.5706  H       1  LIG       0.0000
    12  H12        0.2632      2.2937     -0.4620  H       1  LIG       0.0000
    13  H13        1.9567     -0.0697      0.4870  H       1  LIG       0.0000
    14  H14        1.9053      0.3518      1.0077  H       1  LIG       0.0000
    15  H15       -0.2081      0.2276      2.2373  H       1  LIG       0.0000
    16  H16       -2.7925     -1.7619      0.4208  H       1  LIG       0.0000
    17  H17       -2.6758     -0.9965      2.0645  H       1  LIG       0.0000
    18  H18       -1.5605     -0.0972     -1.3171  H       1  LIG       0.0000
    19  H19       -2.9372     -0.5992     -0.3469  H       1  LIG       0.0000
    20  H20       -0.1532     -1.2686     -1.0035  H       1  LIG       0.0000
    21  H21        2.7877      0.6106     -0.0299  H       1  LIG       0.0000
    22  H22        2.7238     -0.7027     -1.2997  H       1  LIG       0.0000
    23  H23        1.8771      0.8896     -1.5998  H       1  LIG       0.0000
@<TRIPOS>BOND
    1     2    14  1
    2     1    11  1
    3     9    21  1
    4     9    22  1
    5     2    13  1
    6     1     2  1
    7     2     3  1
    8     8     9  1
    9     9    23  1
   10     1    10  1
   11     1    12  1
   12     7     8  1
   13     7    20  1
   14     3     7  1
   15     6     7  1
   16     3    15  1
   17     3     4  1
   18     4     5  1
   19     6    19  1
   20     6    18  1
   21     5     6  1
   22     5    16  1
   23     5    17  1
