@<TRIPOS>MOLECULE
generated_molecule
23 23 0 0 0
SMALL
NO_CHARGES

@<TRIPOS>ATOM
     1  C1         0.0714      1.8606     -0.6834  C       1  LIG       0.0000
     2  C2        -1.1764      0.8793     -0.7280  C       1  LIG       0.0000
     3  C3        -1.0390     -0.6063     -0.1536  C       1  LIG       0.0000
     4  C4         0.2361     -1.4458      0.3266  C       1  LIG       0.0000
     5  C5         0.0585     -2.9631      0.7396  C       1  LIG       0.0000
     6  C6         0.2227      0.0991      0.2680  C       1  LIG       0.0000
     7  C7         1.4559      0.5059     -0.4892  C       1  LIG       0.0000
     8  C8        -0.5602      1.1234      1.0643  C       1  LIG       0.0000
     9  O9        -0.0947      2.2223      1.4181  O       1  LIG       0.0000
    10  H10        0.2806      2.1842      0.3840  H       1  LIG       0.0000
    11  H11       -0.1353      2.8100     -1.2888  H       1  LIG       0.0000
    12  H12        0.9047      1.3246     -1.0498  H       1  LIG       0.0000
    13  H13       -1.7051      0.3940     -1.4591  H       1  LIG       0.0000
    14  H14       -1.6761      1.8256     -0.3774  H       1  LIG       0.0000
    15  H15       -1.8102     -1.3321     -0.0483  H       1  LIG       0.0000
    16  H16        1.3012     -1.5709      0.2911  H       1  LIG       0.0000
    17  H17       -0.9671     -3.3488      0.5836  H       1  LIG       0.0000
    18  H18        0.7583     -3.5188      0.0932  H       1  LIG       0.0000
    19  H19        0.3234     -3.0531      1.8121  H       1  LIG       0.0000
    20  H20        2.2802      0.0846      0.0387  H       1  LIG       0.0000
    21  H21        1.4503      0.0930     -1.5124  H       1  LIG       0.0000
    22  H22        1.4166      1.5875     -0.5366  H       1  LIG       0.0000
    23  H23       -1.5957      0.8448      1.3074  H       1  LIG       0.0000
@<TRIPOS>BOND
    1     5    19  1
    2     5    18  1
    3     5    17  1
    4     4     5  1
    5     1    11  1
    6     1    10  1
    7     1    12  1
    8     1     2  1
    9     4    16  1
   10     3     4  1
   11     4     6  1
   12     2    13  1
   13     2     3  1
   14     2    14  1
   15     7    20  1
   16     3    15  1
   17     3     6  1
   18     6     7  1
   19     6     8  1
   20     7    22  1
   21     7    21  1
   22     8     9  2
   23     8    23  1
