@<TRIPOS>MOLECULE
generated_molecule
19 20 0 0 0
SMALL
NO_CHARGES

@<TRIPOS>ATOM
     1  C1         0.3425      0.6062      2.3398  C       1  LIG       0.0000
     2  C2         0.3677     -0.8099      1.6188  C       1  LIG       0.0000
     3  C3        -0.2348     -0.9754      0.1462  C       1  LIG       0.0000
     4  C4        -0.2931      0.0379     -1.0566  C       1  LIG       0.0000
     5  C5         0.4568     -0.6016     -2.2533  C       1  LIG       0.0000
     6  C6        -0.0401      0.8656     -2.3492  C       1  LIG       0.0000
     7  O7        -0.6725      1.8387     -1.5365  O       1  LIG       0.0000
     8  C8        -1.0831      1.1698     -0.4340  C       1  LIG       0.0000
     9  O9        -1.8237      1.3810      0.5478  O       1  LIG       0.0000
    10  H10        0.0825      1.3861      1.5998  H       1  LIG       0.0000
    11  H11       -0.4672      0.5750      3.0975  H       1  LIG       0.0000
    12  H12        1.3355      0.8323      2.7748  H       1  LIG       0.0000
    13  H13       -0.1946     -1.4293      2.3087  H       1  LIG       0.0000
    14  H14        1.4296     -1.0975      1.5655  H       1  LIG       0.0000
    15  H15       -0.0647     -1.8704      0.7509  H       1  LIG       0.0000
    16  H16       -0.7874     -0.9400     -0.7080  H       1  LIG       0.0000
    17  H17        0.4006     -0.7028     -3.3423  H       1  LIG       0.0000
    18  H18        1.0288     -1.3306     -1.6986  H       1  LIG       0.0000
    19  H19        0.2172      1.0650     -3.3713  H       1  LIG       0.0000
@<TRIPOS>BOND
    1     8     9  2
    2     2    14  1
    3     1    11  1
    4     1    10  1
    5     1     2  1
    6     1    12  1
    7     2    13  1
    8     2     3  1
    9     7     8  1
   10     4     8  1
   11     3    15  1
   12     6     7  1
   13     3     4  1
   14     3    16  1
   15     4     5  1
   16     4     6  1
   17     5    18  1
   18     5     6  1
   19     5    17  1
   20     6    19  1
