@<TRIPOS>MOLECULE
generated_molecule
18 18 0 0 0
SMALL
NO_CHARGES

@<TRIPOS>ATOM
     1  F1         0.2047     -1.9864      2.2064  F       1  LIG       0.0000
     2  C2        -0.7005     -1.0426      1.7018  C       1  LIG       0.0000
     3  F3        -1.3140     -0.0444      2.3908  F       1  LIG       0.0000
     4  F4        -1.9422     -1.5704      1.4079  F       1  LIG       0.0000
     5  C5         0.4342     -0.5836      0.6675  C       1  LIG       0.0000
     6  C6         1.3887      0.4601     -0.0410  C       1  LIG       0.0000
     7  C7         0.5170      1.3910     -0.9251  C       1  LIG       0.0000
     8  C8        -0.7739      0.6707     -1.3023  C       1  LIG       0.0000
     9  C9        -0.4141     -0.6688     -0.6108  C       1  LIG       0.0000
    10  H10        0.9969     -0.9782      1.5026  H       1  LIG       0.0000
    11  H11        2.1155     -0.3100      0.3025  H       1  LIG       0.0000
    12  H12        2.0041      1.3099     -0.2605  H       1  LIG       0.0000
    13  H13        0.5690      2.1917     -0.2034  H       1  LIG       0.0000
    14  H14        0.7869      1.7433     -1.9613  H       1  LIG       0.0000
    15  H15       -1.7957      0.7214     -0.9040  H       1  LIG       0.0000
    16  H16       -0.9019      1.0074     -2.3659  H       1  LIG       0.0000
    17  H17        0.2829     -1.3196     -1.1017  H       1  LIG       0.0000
    18  H18       -1.4576     -0.9914     -0.5036  H       1  LIG       0.0000
@<TRIPOS>BOND
    1     2     4  1
    2     2     3  1
    3     1     2  1
    4     2     5  1
    5     6    12  1
    6     5    10  1
    7     6    11  1
    8     5     6  1
    9     5     9  1
   10     6     7  1
   11     9    17  1
   12     9    18  1
   13     8     9  1
   14     7    14  1
   15     7    13  1
   16     7     8  1
   17     8    16  1
   18     8    15  1
