@<TRIPOS>MOLECULE
generated_molecule
20 19 0 0 0
SMALL
NO_CHARGES

@<TRIPOS>ATOM
     1  C1         1.2017      0.2380     -1.1684  C       1  LIG       0.0000
     2  C2         0.0473      0.0807     -0.2355  C       1  LIG       0.0000
     3  C3        -0.5189      0.6259      1.1345  C       1  LIG       0.0000
     4  O4         0.0616      0.3696      2.2321  O       1  LIG       0.0000
     5  C5        -1.3847      0.6745     -0.1121  C       1  LIG       0.0000
     6  O6        -1.5575      2.0536     -0.1021  O       1  LIG       0.0000
     7  C7         0.8741     -1.0945     -0.7365  C       1  LIG       0.0000
     8  N8         0.6903     -2.5207     -0.4175  N       1  LIG       0.0000
     9  O9         1.7731     -0.9660     -1.5113  O       1  LIG       0.0000
    10  H10        1.0612     -0.5148     -1.9143  H       1  LIG       0.0000
    11  H11        2.1667      0.1239     -0.6636  H       1  LIG       0.0000
    12  H12        1.1802      1.2538     -1.6174  H       1  LIG       0.0000
    13  H13       -1.1738      1.0576      0.4720  H       1  LIG       0.0000
    14  H14       -0.7502      0.7964      2.1782  H       1  LIG       0.0000
    15  H15        0.6176      0.0597      3.1050  H       1  LIG       0.0000
    16  H16       -1.9809      0.7192      0.8034  H       1  LIG       0.0000
    17  H17       -1.8131      0.0719     -0.8614  H       1  LIG       0.0000
    18  H18       -1.7712      3.0036      0.0161  H       1  LIG       0.0000
    19  H19        1.4688     -3.0641      0.0095  H       1  LIG       0.0000
    20  H20       -0.1923     -2.9682     -0.6109  H       1  LIG       0.0000
@<TRIPOS>BOND
    1     7     9  2
    2     8    20  1
    3     7     8  1
    4     2     7  1
    5     8    19  1
    6     1    11  1
    7     5    16  1
    8     5    17  1
    9     1     2  1
   10     1    10  1
   11     1    12  1
   12     2     5  1
   13     2     3  1
   14     5     6  1
   15     3    13  1
   16     3     4  1
   17     3    14  1
   18     6    18  1
   19     4    15  1
