@<TRIPOS>MOLECULE
generated_molecule
16 19 0 0 0
SMALL
NO_CHARGES

@<TRIPOS>ATOM
     1  O1        -1.8953      0.6512     -0.4706  O       1  LIG       0.0000
     2  C2        -0.6646      0.0839     -0.4266  C       1  LIG       0.0000
     3  C3        -0.5689     -1.1489     -1.2504  C       1  LIG       0.0000
     4  C4         0.6434     -1.0098     -0.3354  C       1  LIG       0.0000
     5  N5         1.4185      0.2359     -0.2903  N       1  LIG       0.0000
     6  C6         0.3225      1.2734     -0.5035  C       1  LIG       0.0000
     7  C7         1.0363      1.0964      0.8730  C       1  LIG       0.0000
     8  C8         0.2200     -0.1842      0.8158  C       1  LIG       0.0000
     9  O9         0.3205     -0.4411      2.1241  O       1  LIG       0.0000
    10  H10       -2.5829      1.1283     -0.0462  H       1  LIG       0.0000
    11  H11       -0.7313     -2.2314     -1.1466  H       1  LIG       0.0000
    12  H12       -0.8660     -0.8875     -2.3006  H       1  LIG       0.0000
    13  H13        0.9861     -1.9943     -0.6041  H       1  LIG       0.0000
    14  H14        0.3001      2.1179     -1.1314  H       1  LIG       0.0000
    15  H15        1.5390      1.6512      1.6114  H       1  LIG       0.0000
    16  H16        0.5228     -0.3412      3.0812  H       1  LIG       0.0000
@<TRIPOS>BOND
    1     3    11  1
    2     3    12  1
    3     3     4  1
    4     2     3  1
    5     4    13  1
    6     9    16  1
    7     8     9  1
    8     4     8  1
    9     4     5  1
   10     2     8  1
   11     7     8  1
   12     1     2  1
   13     1    10  1
   14     2     6  1
   15     5     6  1
   16     5     7  1
   17     6     7  1
   18     6    14  1
   19     7    15  1
