@<TRIPOS>MOLECULE
generated_molecule
18 20 0 0 0
SMALL
NO_CHARGES

@<TRIPOS>ATOM
     1  C1         1.1251      1.8765     -0.6985  C       1  LIG       0.0000
     2  O2         0.9370      0.5214     -0.7929  O       1  LIG       0.0000
     3  C3         0.4615     -0.5075     -0.1601  C       1  LIG       0.0000
     4  C4         0.6471     -1.1887      1.1605  C       1  LIG       0.0000
     5  N5        -0.1984     -0.0176      1.2985  N       1  LIG       0.0000
     6  C6        -1.4201     -0.0131      0.4408  C       1  LIG       0.0000
     7  C7        -1.5764     -1.1931     -0.5192  C       1  LIG       0.0000
     8  C8        -0.3214     -1.6621     -0.6124  C       1  LIG       0.0000
     9  C9        -0.2101      0.8580      0.0852  C       1  LIG       0.0000
    10  H10        0.8004      2.2181      0.3199  H       1  LIG       0.0000
    11  H11        2.1921      2.0827     -0.8113  H       1  LIG       0.0000
    12  H12        0.4785      2.3172     -1.4760  H       1  LIG       0.0000
    13  H13        0.4690     -2.2309      0.9244  H       1  LIG       0.0000
    14  H14        1.2016     -0.9631      2.0128  H       1  LIG       0.0000
    15  H15       -2.2727      0.3039      0.9723  H       1  LIG       0.0000
    16  H16       -2.4763     -1.5406     -1.0012  H       1  LIG       0.0000
    17  H17        0.0325     -2.6364     -0.8751  H       1  LIG       0.0000
    18  H18        0.1305      1.7753     -0.2677  H       1  LIG       0.0000
@<TRIPOS>BOND
    1     7    16  1
    2     8    17  1
    3     7     8  2
    4     6     7  1
    5     3     8  1
    6     1    11  1
    7     6    15  1
    8     6     9  1
    9     5     6  1
   10     2     3  1
   11     1     2  1
   12     3     9  1
   13     3     4  1
   14     9    18  1
   15     5     9  1
   16     1    10  1
   17     1    12  1
   18     4     5  1
   19     4    14  1
   20     4    13  1
