@<TRIPOS>MOLECULE
generated_molecule
21 22 0 0 0
SMALL
NO_CHARGES

@<TRIPOS>ATOM
     1  O1         1.5070     -1.9199      1.7208  O       1  LIG       0.0000
     2  C2         1.5600     -0.7911      0.9044  C       1  LIG       0.0000
     3  C3         0.4926      0.2912      0.8297  C       1  LIG       0.0000
     4  C4        -0.0456     -0.2267     -0.5202  C       1  LIG       0.0000
     5  C5         1.1906     -1.1233     -0.5376  C       1  LIG       0.0000
     6  C6        -1.4556     -0.6295     -0.7096  C       1  LIG       0.0000
     7  C7        -1.1778      0.7770     -0.1672  C       1  LIG       0.0000
     8  C8        -0.9361      2.0461     -0.9646  C       1  LIG       0.0000
     9  O9        -0.4033      0.8853     -1.2456  O       1  LIG       0.0000
    10  H10        1.3064     -2.3862      2.5322  H       1  LIG       0.0000
    11  H11        2.4249     -0.2760      1.2979  H       1  LIG       0.0000
    12  H12       -0.5149      0.6628      1.0045  H       1  LIG       0.0000
    13  H13        1.2291      0.8984      1.3603  H       1  LIG       0.0000
    14  H14        2.0524     -1.7619     -0.3756  H       1  LIG       0.0000
    15  H15        0.9057     -1.2071     -1.5668  H       1  LIG       0.0000
    16  H16       -2.4938     -0.7042     -0.4191  H       1  LIG       0.0000
    17  H17       -1.4116     -1.4604     -1.3937  H       1  LIG       0.0000
    18  H18       -2.0521      0.7917      0.4432  H       1  LIG       0.0000
    19  H19       -0.1547      0.8286      0.0269  H       1  LIG       0.0000
    20  H20       -0.1630      2.6875     -1.3641  H       1  LIG       0.0000
    21  H21       -1.8603      2.6179     -0.8555  H       1  LIG       0.0000
@<TRIPOS>BOND
    1     1    10  1
    2     1     2  1
    3     5    15  1
    4     2    11  1
    5     5    14  1
    6     2     5  1
    7     2     3  1
    8     4     5  1
    9     6    16  1
   10     3     4  1
   11     3    13  1
   12     3    12  1
   13     4     6  1
   14     4     9  1
   15     6    17  1
   16     6     7  1
   17     8     9  1
   18     8    20  1
   19     7     8  1
   20     8    21  1
   21     7    18  1
   22     7    19  1
