@<TRIPOS>MOLECULE
generated_molecule
18 19 0 0 0
SMALL
NO_CHARGES

@<TRIPOS>ATOM
     1  C1        -1.6226      1.4878      0.5595  C       1  LIG       0.0000
     2  C2        -0.8398      0.2041      0.0800  C       1  LIG       0.0000
     3  N3         0.1915      1.1378      0.6967  N       1  LIG       0.0000
     4  C4         1.4700      0.4640      0.8118  C       1  LIG       0.0000
     5  O5         2.2170      0.9538      1.7376  O       1  LIG       0.0000
     6  C6         1.7106     -0.7616     -0.1870  C       1  LIG       0.0000
     7  C7         0.6281     -1.7269     -0.8024  C       1  LIG       0.0000
     8  O8        -0.2268     -1.9386     -1.8724  O       1  LIG       0.0000
     9  C9        -0.8171     -0.9342     -1.0258  C       1  LIG       0.0000
    10  H10       -1.7365      2.1480     -0.3334  H       1  LIG       0.0000
    11  H11       -2.6050      1.2000      0.9833  H       1  LIG       0.0000
    12  H12       -1.1166      2.0089      1.3775  H       1  LIG       0.0000
    13  H13       -1.0210     -0.7586      0.0119  H       1  LIG       0.0000
    14  H14        0.2073      2.1044      0.9923  H       1  LIG       0.0000
    15  H15        1.7704     -1.4202     -0.9455  H       1  LIG       0.0000
    16  H16        2.6355     -0.3568      0.2501  H       1  LIG       0.0000
    17  H17        0.9027     -2.7861     -0.7385  H       1  LIG       0.0000
    18  H18       -1.7477     -1.0258     -1.5955  H       1  LIG       0.0000
@<TRIPOS>BOND
    1     4     5  2
    2     3    14  1
    3     3     4  1
    4     4     6  1
    5     2     3  1
    6     1    11  1
    7     6    16  1
    8     6    15  1
    9     6     7  1
   10     1    10  1
   11     1     2  1
   12     1    12  1
   13     2    13  1
   14     2     9  1
   15     7     9  1
   16     7     8  1
   17     7    17  1
   18     8     9  1
   19     9    18  1
