@<TRIPOS>MOLECULE
generated_molecule
16 17 0 0 0
SMALL
NO_CHARGES

@<TRIPOS>ATOM
     1  O1         1.4043     -2.0969     -1.7700  O       1  LIG       0.0000
     2  C2         1.1057     -1.0169     -1.3256  C       1  LIG       0.0000
     3  O3         0.5110      0.0843     -1.8629  O       1  LIG       0.0000
     4  C4         0.4282      1.0609     -0.8337  C       1  LIG       0.0000
     5  C5        -0.6467      1.5737      0.1580  C       1  LIG       0.0000
     6  C6        -1.5142      0.6533      0.6073  C       1  LIG       0.0000
     7  C7        -0.9275     -0.7622      0.8234  C       1  LIG       0.0000
     8  N8         0.5737     -1.0858      0.9058  N       1  LIG       0.0000
     9  C9         1.1177     -0.1169     -0.0401  C       1  LIG       0.0000
    10  H10        0.8266      1.8034     -1.4688  H       1  LIG       0.0000
    11  H11       -0.7809      2.5596      0.5069  H       1  LIG       0.0000
    12  H12       -2.5309      0.9717      0.7605  H       1  LIG       0.0000
    13  H13       -1.3233     -0.9987      1.7883  H       1  LIG       0.0000
    14  H14       -1.1368     -1.2784     -0.0789  H       1  LIG       0.0000
    15  H15        1.0056     -1.8277      1.3919  H       1  LIG       0.0000
    16  H16        1.8874      0.4765      0.4379  H       1  LIG       0.0000
@<TRIPOS>BOND
    1     4    10  1
    2     9    16  1
    3     3     4  1
    4     4     9  1
    5     4     5  1
    6     2     3  1
    7     5    11  1
    8     2     9  1
    9     8     9  1
   10     1     2  2
   11     5     6  2
   12     7    13  1
   13     6     7  1
   14     6    12  1
   15     7     8  1
   16     8    15  1
   17     7    14  1
