@<TRIPOS>MOLECULE
generated_molecule
21 21 0 0 0
SMALL
NO_CHARGES

@<TRIPOS>ATOM
     1  C1        -0.2017     -1.3966      2.2908  C       1  LIG       0.0000
     2  C2        -0.7348     -0.0187      1.6775  C       1  LIG       0.0000
     3  C3        -0.8924      0.3651      0.1434  C       1  LIG       0.0000
     4  C4        -0.4618      1.4487     -0.8952  C       1  LIG       0.0000
     5  C5         1.0366      1.2051     -0.5492  C       1  LIG       0.0000
     6  C6         1.1752     -0.2727     -0.1225  C       1  LIG       0.0000
     7  C7         0.0247     -0.4052     -0.7546  C       1  LIG       0.0000
     8  C8         0.1459     -0.7868     -2.1954  C       1  LIG       0.0000
     9  C9         0.3389     -1.0372     -3.3988  C       1  LIG       0.0000
    10  H10       -0.2697     -1.3702      3.4236  H       1  LIG       0.0000
    11  H11       -0.7938     -2.2395      1.9014  H       1  LIG       0.0000
    12  H12        0.8614     -1.5347      1.9864  H       1  LIG       0.0000
    13  H13       -1.7581      0.1988      1.8879  H       1  LIG       0.0000
    14  H14        0.0073      0.5819      2.2419  H       1  LIG       0.0000
    15  H15       -1.8254      0.8999      0.2268  H       1  LIG       0.0000
    16  H16       -0.1117      1.9207     -1.7947  H       1  LIG       0.0000
    17  H17       -1.5476      1.6613     -0.8255  H       1  LIG       0.0000
    18  H18        1.8672      1.0617      0.0983  H       1  LIG       0.0000
    19  H19        0.9591      1.9937     -1.2533  H       1  LIG       0.0000
    20  H20        1.6853     -1.0402      0.4231  H       1  LIG       0.0000
    21  H21        0.4953     -1.2352     -4.5118  H       1  LIG       0.0000
@<TRIPOS>BOND
    1     6    20  1
    2     5    18  1
    3     5     6  1
    4     6     7  2
    5     5    19  1
    6     4     5  1
    7     9    21  1
    8     8     9  3
    9     7     8  1
   10     3     7  1
   11     3     4  1
   12     4    16  1
   13     4    17  1
   14     3    15  1
   15     2     3  1
   16     2    14  1
   17     2    13  1
   18     1     2  1
   19     1    11  1
   20     1    10  1
   21     1    12  1
