@<TRIPOS>MOLECULE
generated_molecule
21 22 0 0 0
SMALL
NO_CHARGES

@<TRIPOS>ATOM
     1  C1        -0.2552      3.0866     -0.0037  C       1  LIG       0.0000
     2  C2         0.0855      1.5416      0.1697  C       1  LIG       0.0000
     3  O3        -0.5730      0.3635      0.4611  O       1  LIG       0.0000
     4  C4        -0.4778     -1.0170      0.6957  C       1  LIG       0.0000
     5  C5         0.5256     -1.9844      1.4914  C       1  LIG       0.0000
     6  C6         1.0181     -1.0974      0.3599  C       1  LIG       0.0000
     7  C7         0.3078     -0.4733     -0.7973  C       1  LIG       0.0000
     8  C8        -0.7006     -1.5364     -1.1814  C       1  LIG       0.0000
     9  C9         0.3798      0.8341     -1.1067  C       1  LIG       0.0000
    10  H10        0.2047      3.6059      0.8602  H       1  LIG       0.0000
    11  H11        0.1738      3.4274     -0.9574  H       1  LIG       0.0000
    12  H12       -1.3636      3.2794     -0.0234  H       1  LIG       0.0000
    13  H13        0.7752      1.5423      1.0055  H       1  LIG       0.0000
    14  H14       -1.3694     -1.5473      0.4863  H       1  LIG       0.0000
    15  H15        0.8870     -1.7264      2.4838  H       1  LIG       0.0000
    16  H16        0.4736     -3.0602      1.2601  H       1  LIG       0.0000
    17  H17        2.0593     -1.1957      0.5640  H       1  LIG       0.0000
    18  H18       -1.7095     -1.0992     -1.2163  H       1  LIG       0.0000
    19  H19       -0.7166     -2.3060     -0.4161  H       1  LIG       0.0000
    20  H20       -0.3881     -1.9120     -2.1393  H       1  LIG       0.0000
    21  H21        0.6635      1.2745     -1.9962  H       1  LIG       0.0000
@<TRIPOS>BOND
    1     4    14  1
    2     5    15  1
    3     3     4  1
    4     4     5  1
    5     4     6  1
    6     2     3  1
    7     5    16  1
    8     5     6  1
    9     1    11  1
   10     1    10  1
   11     1     2  1
   12     1    12  1
   13     2    13  1
   14     2     9  1
   15     6    17  1
   16     6     7  1
   17     7     9  2
   18     9    21  1
   19     7     8  1
   20     8    18  1
   21     8    20  1
   22     8    19  1
