@<TRIPOS>MOLECULE
generated_molecule
18 19 0 0 0
SMALL
NO_CHARGES

@<TRIPOS>ATOM
     1  O1        -2.2752      0.8223      0.7411  O       1  LIG       0.0000
     2  C2        -1.1093      0.8456      0.4985  C       1  LIG       0.0000
     3  C3        -0.5867      0.0622     -0.6872  C       1  LIG       0.0000
     4  C4         0.9731     -0.3215     -0.7709  C       1  LIG       0.0000
     5  C5         0.0132     -1.4122     -1.2082  C       1  LIG       0.0000
     6  C6        -0.0533     -0.9685      0.3218  C       1  LIG       0.0000
     7  N7         1.1835     -0.1208      0.6935  N       1  LIG       0.0000
     8  C8         1.2018      1.1789      1.2300  C       1  LIG       0.0000
     9  C9        -0.0634      1.6298      1.2775  C       1  LIG       0.0000
    10  H10       -0.2850     -0.8241     -1.2066  H       1  LIG       0.0000
    11  H11       -1.4494      0.5593     -0.9751  H       1  LIG       0.0000
    12  H12        1.9351     -0.1121     -1.2571  H       1  LIG       0.0000
    13  H13       -0.7905     -2.1423     -1.1183  H       1  LIG       0.0000
    14  H14        0.3779     -1.3553     -2.2292  H       1  LIG       0.0000
    15  H15       -0.5721     -1.9469      0.3451  H       1  LIG       0.0000
    16  H16       -0.3428     -0.1900      0.9522  H       1  LIG       0.0000
    17  H17        2.0309      1.7765      1.5305  H       1  LIG       0.0000
    18  H18       -0.1877      2.5192      1.8623  H       1  LIG       0.0000
@<TRIPOS>BOND
    1     4    12  1
    2     5    13  1
    3     4     7  1
    4     4     5  1
    5     3     4  1
    6     3    10  1
    7     7     8  1
    8     6     7  1
    9     6    15  1
   10     1     2  2
   11     2     9  1
   12     2     3  1
   13     5     6  1
   14     5    14  1
   15     8     9  2
   16     9    18  1
   17     8    17  1
   18     3    11  1
   19     6    16  1
