@<TRIPOS>MOLECULE
generated_molecule
13 13 0 0 0
SMALL
NO_CHARGES

@<TRIPOS>ATOM
     1  O1        -1.8210      1.7063     -2.3614  O       1  LIG       0.0000
     2  C2        -1.6238      0.8350     -1.5113  C       1  LIG       0.0000
     3  O3        -2.3111     -0.2792     -1.2373  O       1  LIG       0.0000
     4  C4        -1.7160     -1.0100     -0.2654  C       1  LIG       0.0000
     5  C5        -0.5746     -0.3069      0.0401  C       1  LIG       0.0000
     6  C6         0.6998     -0.6507      0.7400  C       1  LIG       0.0000
     7  C7         1.8918      0.2995      1.0409  C       1  LIG       0.0000
     8  C8         2.8596      1.0762      1.1952  C       1  LIG       0.0000
     9  O9        -0.5737      0.8167     -0.6922  O       1  LIG       0.0000
    10  H10       -2.1648     -1.9036      0.0658  H       1  LIG       0.0000
    11  H11        0.4082     -1.0774      1.6775  H       1  LIG       0.0000
    12  H12        1.1958     -1.2018     -0.0042  H       1  LIG       0.0000
    13  H13        3.7296      1.6958      1.3122  H       1  LIG       0.0000
@<TRIPOS>BOND
    1     1     2  2
    2     6    12  1
    3     2     9  ar
    4     5     9  ar
    5     2     3  ar
    6     5     6  1
    7     4     5  ar
    8     6    11  1
    9     6     7  1
   10     3     4  ar
   11     4    10  1
   12     7     8  3
   13     8    13  1
