@<TRIPOS>MOLECULE
generated_molecule
15 15 0 0 0
SMALL
NO_CHARGES

@<TRIPOS>ATOM
     1  O1        -0.5340     -1.9482     -2.3976  O       1  LIG       0.0000
     2  C2        -0.8797     -1.3082     -1.3539  C       1  LIG       0.0000
     3  C3        -0.1363     -0.1316     -0.7201  C       1  LIG       0.0000
     4  C4        -0.6650      1.2426     -0.1696  C       1  LIG       0.0000
     5  O5         0.2967      1.4921      0.7325  O       1  LIG       0.0000
     6  C6         1.0295      1.0162      1.7260  C       1  LIG       0.0000
     7  O7         1.6413      1.7280      2.4762  O       1  LIG       0.0000
     8  O8         0.8525     -0.3372      1.5362  O       1  LIG       0.0000
     9  C9         0.6362     -1.0406      0.3458  C       1  LIG       0.0000
    10  H10       -1.8092     -1.5343     -0.8800  H       1  LIG       0.0000
    11  H11        0.1930      0.5938     -1.4271  H       1  LIG       0.0000
    12  H12       -1.4136      1.2637     -0.9510  H       1  LIG       0.0000
    13  H13       -0.9508      2.0840      0.4281  H       1  LIG       0.0000
    14  H14        0.5272     -1.6825      1.1514  H       1  LIG       0.0000
    15  H15        1.2122     -1.4377     -0.4970  H       1  LIG       0.0000
@<TRIPOS>BOND
    1     4    12  1
    2     4    13  1
    3     4     5  1
    4     3     4  1
    5     5     6  1
    6     3    11  1
    7     1     2  2
    8     2     3  1
    9     3     9  1
   10     2    10  1
   11     6     7  2
   12     6     8  1
   13     8     9  1
   14     9    14  1
   15     9    15  1
