@<TRIPOS>MOLECULE
generated_molecule
23 22 0 0 0
SMALL
NO_CHARGES

@<TRIPOS>ATOM
     1  C1        -0.7042      2.1405      2.3996  C       1  LIG       0.0000
     2  C2         0.3244      0.9778      2.3500  C       1  LIG       0.0000
     3  C3        -0.0622     -0.3071      1.5833  C       1  LIG       0.0000
     4  O4        -0.3511      0.0409      0.2588  O       1  LIG       0.0000
     5  C5        -0.3323     -0.0710     -1.1149  C       1  LIG       0.0000
     6  C6        -0.2678      0.0268     -2.7594  C       1  LIG       0.0000
     7  C7         0.2192     -0.9019     -2.3548  C       1  LIG       0.0000
     8  C8         0.6191     -1.5951      1.1866  C       1  LIG       0.0000
     9  C9         1.1065     -2.6780      0.8350  C       1  LIG       0.0000
    10  H10       -0.9448      2.3641      1.3675  H       1  LIG       0.0000
    11  H11       -0.3939      3.2135      2.7730  H       1  LIG       0.0000
    12  H12       -1.4624      1.7887      3.0249  H       1  LIG       0.0000
    13  H13        0.8368      0.3649      3.0572  H       1  LIG       0.0000
    14  H14        0.9342      1.9257      2.2033  H       1  LIG       0.0000
    15  H15       -0.6664     -0.8283      2.3199  H       1  LIG       0.0000
    16  H16       -0.7031      0.3203     -0.2984  H       1  LIG       0.0000
    17  H17       -0.0880      1.0482     -3.1443  H       1  LIG       0.0000
    18  H18       -1.2143     -0.3422     -3.1852  H       1  LIG       0.0000
    19  H19        0.5864     -0.5812     -3.0758  H       1  LIG       0.0000
    20  H20       -0.5256     -1.4880     -2.9778  H       1  LIG       0.0000
    21  H21        0.8760     -1.5766     -1.8797  H       1  LIG       0.0000
    22  H22        0.6863     -0.2169     -3.0626  H       1  LIG       0.0000
    23  H23        1.5271     -3.6251      0.4938  H       1  LIG       0.0000
@<TRIPOS>BOND
    1     6    17  1
    2     6    18  1
    3     7    21  1
    4     6    19  1
    5     5     6  1
    6     5    16  1
    7     5     7  1
    8     4     5  1
    9     7    20  1
   10     7    22  1
   11     9    23  1
   12     8     9  3
   13     3    15  1
   14     3     8  1
   15     3     4  1
   16     2     3  1
   17     1    11  1
   18     2    14  1
   19     1     2  1
   20     2    13  1
   21     1    10  1
   22     1    12  1
