@<TRIPOS>MOLECULE
generated_molecule
20 20 0 0 0
SMALL
NO_CHARGES

@<TRIPOS>ATOM
     1  C1        -2.1454     -0.4802      0.4933  C       1  LIG       0.0000
     2  C2        -0.6472      0.0956      0.0791  C       1  LIG       0.0000
     3  C3         0.0404      0.7303     -1.1660  C       1  LIG       0.0000
     4  N4         0.8841      0.4292     -2.3283  N       1  LIG       0.0000
     5  C5         1.5723      0.8018     -0.9543  C       1  LIG       0.0000
     6  C6         1.6851      0.4273      0.5405  C       1  LIG       0.0000
     7  O7         0.7499     -0.4577      0.7681  O       1  LIG       0.0000
     8  C8        -0.2637     -1.2306      1.1920  C       1  LIG       0.0000
     9  O9        -0.3289     -2.4579      0.8996  O       1  LIG       0.0000
    10  H10       -2.9168      0.0009     -0.1424  H       1  LIG       0.0000
    11  H11       -2.3383     -0.2607      1.5612  H       1  LIG       0.0000
    12  H12       -2.2055     -1.6081      0.3021  H       1  LIG       0.0000
    13  H13       -0.4904      1.0635      0.3640  H       1  LIG       0.0000
    14  H14       -0.2635     -0.8574      0.4160  H       1  LIG       0.0000
    15  H15       -0.6341      1.4147     -1.6300  H       1  LIG       0.0000
    16  H16        1.7397      0.4690     -2.8475  H       1  LIG       0.0000
    17  H17        2.5047      1.2889     -1.2821  H       1  LIG       0.0000
    18  H18        2.6983      0.6325      0.3736  H       1  LIG       0.0000
    19  H19        1.3392      0.6729      1.5487  H       1  LIG       0.0000
    20  H20       -0.9799     -0.6739      1.8125  H       1  LIG       0.0000
@<TRIPOS>BOND
    1     5    17  1
    2     3    15  1
    3     4    16  1
    4     3     5  1
    5     4     5  1
    6     5     6  1
    7     3     4  1
    8     2     3  1
    9     6    19  1
   10     6     7  1
   11     7     8  1
   12     1    11  1
   13     6    18  1
   14     2    14  1
   15     8     9  2
   16     1     2  1
   17     2    13  1
   18     8    20  1
   19     1    10  1
   20     1    12  1
