@<TRIPOS>MOLECULE
generated_molecule
27 26 0 0 0
SMALL
NO_CHARGES

@<TRIPOS>ATOM
     1  C1        -1.3945      1.9630     -0.9983  C       1  LIG       0.0000
     2  C2        -0.7823      0.7286     -1.8628  C       1  LIG       0.0000
     3  C3        -0.6447     -0.9018     -2.0755  C       1  LIG       0.0000
     4  O4        -0.8301     -1.7138     -1.0288  O       1  LIG       0.0000
     5  C5        -0.9912     -1.6299      0.2662  C       1  LIG       0.0000
     6  C6         0.0645     -0.4378      0.2381  C       1  LIG       0.0000
     7  C7         0.8335     -0.0409      1.4801  C       1  LIG       0.0000
     8  C8         1.5877     -1.2769      2.0178  C       1  LIG       0.0000
     9  C9         1.3979      1.3170      1.0089  C       1  LIG       0.0000
    10  H10       -0.6394      2.7856     -0.9858  H       1  LIG       0.0000
    11  H11       -2.3399      2.2677     -1.4726  H       1  LIG       0.0000
    12  H12       -1.6163      1.6612      0.0774  H       1  LIG       0.0000
    13  H13       -1.2427      0.4221     -2.6953  H       1  LIG       0.0000
    14  H14       -0.0279      1.3495     -1.4197  H       1  LIG       0.0000
    15  H15       -1.2884     -1.6249     -2.2182  H       1  LIG       0.0000
    16  H16        0.2454     -0.9211     -2.6702  H       1  LIG       0.0000
    17  H17       -1.0806     -1.6817      1.3473  H       1  LIG       0.0000
    18  H18       -1.7171     -2.3074     -0.1221  H       1  LIG       0.0000
    19  H19       -0.6011     -0.6445     -0.6378  H       1  LIG       0.0000
    20  H20        0.8266      0.2662      0.0317  H       1  LIG       0.0000
    21  H21        0.4269      0.1759      2.4740  H       1  LIG       0.0000
    22  H22        0.8150     -1.9626      2.3699  H       1  LIG       0.0000
    23  H23        2.1809     -1.6873      1.2331  H       1  LIG       0.0000
    24  H24        2.2584     -1.0315      2.8869  H       1  LIG       0.0000
    25  H25        0.9962      1.5432      0.0383  H       1  LIG       0.0000
    26  H26        2.4905      1.2866      0.9675  H       1  LIG       0.0000
    27  H27        1.0726      2.0953      1.7500  H       1  LIG       0.0000
@<TRIPOS>BOND
    1     8    23  1
    2     7    21  1
    3     9    26  1
    4     8    24  1
    5     7     8  1
    6     8    22  1
    7     7     9  1
    8     6     7  1
    9     9    25  1
   10     9    27  1
   11     5    17  1
   12     5    18  1
   13     5     6  1
   14     4     5  1
   15     6    20  1
   16     6    19  1
   17     3    15  1
   18     3     4  1
   19     3    16  1
   20     2     3  1
   21     1    11  1
   22     2    14  1
   23     1     2  1
   24     2    13  1
   25     1    10  1
   26     1    12  1
