@<TRIPOS>MOLECULE
generated_molecule
16 17 0 0 0
SMALL
NO_CHARGES

@<TRIPOS>ATOM
     1  C1         0.3726     -2.1851     -0.4424  C       1  LIG       0.0000
     2  C2         0.2865     -0.6647     -0.4571  C       1  LIG       0.0000
     3  C3        -0.7058      0.0090     -1.4168  C       1  LIG       0.0000
     4  C4        -1.0881      1.0435     -0.3459  C       1  LIG       0.0000
     5  O5        -2.0393      1.8336     -0.1230  O       1  LIG       0.0000
     6  C6         0.1528      0.6155      0.3711  C       1  LIG       0.0000
     7  N7         1.4858     -0.1096      0.2172  N       1  LIG       0.0000
     8  C8         0.1108      1.6971      1.3810  C       1  LIG       0.0000
     9  C9         0.0372      2.5752      2.1869  C       1  LIG       0.0000
    10  H10        1.1174     -2.3454     -1.1832  H       1  LIG       0.0000
    11  H11        0.6212     -2.5662      0.5543  H       1  LIG       0.0000
    12  H12       -0.6127     -2.6563     -0.6391  H       1  LIG       0.0000
    13  H13       -1.1580     -0.9086     -1.8064  H       1  LIG       0.0000
    14  H14       -0.5797      0.7814     -2.1595  H       1  LIG       0.0000
    15  H15        2.0271     -0.4964      0.9204  H       1  LIG       0.0000
    16  H16       -0.0279      3.3769      2.9427  H       1  LIG       0.0000
@<TRIPOS>BOND
    1     3    14  1
    2     1    11  1
    3     7    15  1
    4     2     7  1
    5     6     7  1
    6     2     3  1
    7     3    13  1
    8     3     4  1
    9     1     2  1
   10     1    10  1
   11     1    12  1
   12     2     6  1
   13     4     6  1
   14     4     5  2
   15     6     8  1
   16     8     9  3
   17     9    16  1
