@<TRIPOS>MOLECULE
generated_molecule
16 16 0 0 0
SMALL
NO_CHARGES

@<TRIPOS>ATOM
     1  O1        -1.3558     -0.0085      1.1335  O       1  LIG       0.0000
     2  C2        -0.2483     -0.2633      0.4121  C       1  LIG       0.0000
     3  C3        -1.0404     -1.0407     -0.5924  C       1  LIG       0.0000
     4  C4        -0.5888      0.0406     -1.5565  C       1  LIG       0.0000
     5  C5         0.5430      0.4955     -0.6308  C       1  LIG       0.0000
     6  C6         1.0594      1.9288     -0.6300  C       1  LIG       0.0000
     7  N7         1.5595      3.0082     -0.5996  N       1  LIG       0.0000
     8  C8         0.8366     -0.4267      1.4693  C       1  LIG       0.0000
     9  C9         1.7006     -0.5772      2.2951  C       1  LIG       0.0000
    10  H10       -2.0461      0.2157      1.7636  H       1  LIG       0.0000
    11  H11       -0.9518     -1.8256     -1.3576  H       1  LIG       0.0000
    12  H12       -1.8738     -1.3306      0.0817  H       1  LIG       0.0000
    13  H13       -1.2735      0.8519     -1.7350  H       1  LIG       0.0000
    14  H14       -0.4112     -0.5082     -2.4869  H       1  LIG       0.0000
    15  H15        1.5878      0.1729     -0.6041  H       1  LIG       0.0000
    16  H16        2.5028     -0.7328      3.0375  H       1  LIG       0.0000
@<TRIPOS>BOND
    1     9    16  1
    2     8     9  3
    3     6     7  3
    4     2     8  1
    5     1    10  1
    6     5     6  1
    7     5    15  1
    8     2     5  1
    9     4     5  1
   10     1     2  1
   11     2     3  1
   12     3    11  1
   13     3     4  1
   14     3    12  1
   15     4    14  1
   16     4    13  1
