@<TRIPOS>MOLECULE
generated_molecule
21 23 0 0 0
SMALL
NO_CHARGES

@<TRIPOS>ATOM
     1  C1        -1.3725     -0.6998     -0.9729  C       1  LIG       0.0000
     2  C2        -1.4814     -0.3977      0.4959  C       1  LIG       0.0000
     3  C3        -0.7383      0.9053      0.5016  C       1  LIG       0.0000
     4  C4         0.6418      1.4993      0.5468  C       1  LIG       0.0000
     5  C5         1.2595      0.7101      1.6727  C       1  LIG       0.0000
     6  C6         1.3827     -0.5284      1.1940  C       1  LIG       0.0000
     7  C7         1.3759     -0.6947     -0.3057  C       1  LIG       0.0000
     8  C8         0.3195      0.4110     -0.4633  C       1  LIG       0.0000
     9  C9        -0.2553     -0.0210     -1.7822  C       1  LIG       0.0000
    10  H10       -1.0988     -1.6882     -1.3587  H       1  LIG       0.0000
    11  H11       -2.4090     -0.4203     -1.0329  H       1  LIG       0.0000
    12  H12       -2.3732     -1.0211      0.4984  H       1  LIG       0.0000
    13  H13       -1.1517     -0.3827      1.5570  H       1  LIG       0.0000
    14  H14       -1.1773      1.7353      1.0151  H       1  LIG       0.0000
    15  H15        0.8080      2.5431      0.4367  H       1  LIG       0.0000
    16  H16        1.4541      1.1402      2.6487  H       1  LIG       0.0000
    17  H17        1.4137     -1.2889      1.9202  H       1  LIG       0.0000
    18  H18        2.4666     -0.7867     -0.4302  H       1  LIG       0.0000
    19  H19        0.9109     -1.2913     -1.0652  H       1  LIG       0.0000
    20  H20       -0.4931      0.6200     -2.6147  H       1  LIG       0.0000
    21  H21        0.5181     -0.3434     -2.4612  H       1  LIG       0.0000
@<TRIPOS>BOND
    1     1    11  1
    2     4    15  1
    3     1    10  1
    4     1     9  1
    5     1     2  1
    6     9    21  1
    7     2    12  1
    8     4     5  1
    9     4     8  1
   10     3     4  1
   11     8     9  1
   12     9    20  1
   13     2     3  1
   14     2    13  1
   15     5    16  1
   16     5     6  2
   17     3     8  1
   18     7     8  1
   19     3    14  1
   20     7    18  1
   21     6     7  1
   22     6    17  1
   23     7    19  1
