@<TRIPOS>MOLECULE
generated_molecule
21 24 0 0 0
SMALL
NO_CHARGES

@<TRIPOS>ATOM
     1  C1         0.2333     -2.0600      0.4445  C       1  LIG       0.0000
     2  C2         1.1044     -1.0973      1.2096  C       1  LIG       0.0000
     3  C3         0.6094      0.1158      2.0042  C       1  LIG       0.0000
     4  C4         0.6376      0.0839      0.4607  C       1  LIG       0.0000
     5  C5         0.5084      1.2572     -0.3411  C       1  LIG       0.0000
     6  C6        -0.0973      1.1729     -1.7017  C       1  LIG       0.0000
     7  C7        -1.5653      1.4237     -1.3227  C       1  LIG       0.0000
     8  C8        -0.9234      0.5846     -0.2061  C       1  LIG       0.0000
     9  C9         0.1312     -0.1808     -0.9596  C       1  LIG       0.0000
    10  H10       -0.6359     -1.5879     -0.0580  H       1  LIG       0.0000
    11  H11       -0.2300     -2.6747      1.1564  H       1  LIG       0.0000
    12  H12        0.9198     -2.4143     -0.2926  H       1  LIG       0.0000
    13  H13        2.1027     -1.3108      1.5178  H       1  LIG       0.0000
    14  H14       -0.0636      0.9660      2.1152  H       1  LIG       0.0000
    15  H15        1.0778     -0.2250      2.9257  H       1  LIG       0.0000
    16  H16        1.2057      2.0360     -0.5156  H       1  LIG       0.0000
    17  H17        0.3438      1.7008     -2.5508  H       1  LIG       0.0000
    18  H18       -2.5013      1.1475     -0.8749  H       1  LIG       0.0000
    19  H19       -1.5753      2.1997     -2.0832  H       1  LIG       0.0000
    20  H20       -1.4162     -0.0266      0.5433  H       1  LIG       0.0000
    21  H21        0.1343     -1.1106     -1.4710  H       1  LIG       0.0000
@<TRIPOS>BOND
    1     1    11  1
    2     3    14  1
    3     2    13  1
    4     3    15  1
    5     2     3  1
    6     3     4  1
    7     1     2  1
    8     1    10  1
    9     1    12  1
   10     2     4  1
   11     4     9  1
   12     4     5  1
   13     9    21  1
   14     8     9  1
   15     6     9  1
   16     5    16  1
   17     5     8  1
   18     5     6  1
   19     8    20  1
   20     7     8  1
   21     6    17  1
   22     6     7  1
   23     7    19  1
   24     7    18  1
