@<TRIPOS>MOLECULE
generated_molecule
19 20 0 0 0
SMALL
NO_CHARGES

@<TRIPOS>ATOM
     1  C1         0.4836      1.5097      0.9059  C       1  LIG       0.0000
     2  C2        -0.0688      0.4463     -0.0377  C       1  LIG       0.0000
     3  C3         0.3630     -0.2059     -1.1704  C       1  LIG       0.0000
     4  C4        -0.3313     -1.4651     -0.8090  C       1  LIG       0.0000
     5  O5        -0.5360     -2.3676     -1.7644  O       1  LIG       0.0000
     6  C6         0.1614     -0.2775     -0.0559  C       1  LIG       0.0000
     7  C7         0.7652      0.9225      0.7728  C       1  LIG       0.0000
     8  O8         1.4086      0.3871     -0.2839  O       1  LIG       0.0000
     9  C9        -1.2621     -0.3606      0.3211  C       1  LIG       0.0000
    10  H10        1.3161      1.1289      1.5224  H       1  LIG       0.0000
    11  H11        0.7917      2.3321      0.2876  H       1  LIG       0.0000
    12  H12       -0.3497      1.7463      1.5640  H       1  LIG       0.0000
    13  H13        0.8856     -0.0933     -2.0350  H       1  LIG       0.0000
    14  H14       -0.9204     -2.0660     -0.1453  H       1  LIG       0.0000
    15  H15       -0.6566     -3.1239     -2.3837  H       1  LIG       0.0000
    16  H16       -0.1665      1.1199      1.3367  H       1  LIG       0.0000
    17  H17        1.6381      1.4517      1.0437  H       1  LIG       0.0000
    18  H18       -1.7283     -1.1599     -0.2331  H       1  LIG       0.0000
    19  H19       -1.7937      0.0755      1.1642  H       1  LIG       0.0000
@<TRIPOS>BOND
    1     3    13  1
    2     5    15  1
    3     4     5  1
    4     3     4  1
    5     2     3  2
    6     1    11  1
    7     4    14  1
    8     4     6  1
    9     1     2  1
   10     2     9  1
   11     1    10  1
   12     1    12  1
   13     6     8  1
   14     6     9  1
   15     6     7  1
   16     7     8  1
   17     7    17  1
   18     9    19  1
   19     9    18  1
   20     7    16  1
