@<TRIPOS>MOLECULE
generated_molecule
15 15 0 0 0
SMALL
NO_CHARGES

@<TRIPOS>ATOM
     1  O1        -1.8841      1.5410      2.0741  O       1  LIG       0.0000
     2  C2        -1.5551      1.4698      0.8884  C       1  LIG       0.0000
     3  O3        -2.5701      1.7482      0.1039  O       1  LIG       0.0000
     4  C4        -0.2268      1.0842      0.2875  C       1  LIG       0.0000
     5  C5         1.0604      1.1067      0.5452  C       1  LIG       0.0000
     6  N6         1.5513     -0.2784      0.5665  N       1  LIG       0.0000
     7  C7         0.6333     -0.8950     -0.3183  C       1  LIG       0.0000
     8  N8         0.3822     -2.2561     -0.6894  N       1  LIG       0.0000
     9  H9        -0.1746     -2.7907     -0.0868  H       1  LIG       0.0000
    10  H10        0.7389     -2.4944     -1.5942  H       1  LIG       0.0000
    11  C11       -0.3223      0.1473     -0.8632  C       1  LIG       0.0000
    12  H12        1.6192      1.9954      0.5722  H       1  LIG       0.0000
    13  H13        2.0606     -0.7940      1.2363  H       1  LIG       0.0000
    14  H14       -0.1525      0.9079     -1.6110  H       1  LIG       0.0000
    15  H15       -1.1605     -0.4918     -1.1110  H       1  LIG       0.0000
@<TRIPOS>BOND
    1    11    15  1
    2     2     3  1
    3     1     2  2
    4     2     4  1
    5     4    11  1
    6     4     5  2
    7     7    11  1
    8    11    14  1
    9     5    12  1
   10     5     6  1
   11     6     7  1
   12     7     8  1
   13     6    13  1
   14     8    10  1
   15     8     9  1
