@<TRIPOS>MOLECULE
generated_molecule
14 14 0 0 0
SMALL
NO_CHARGES

@<TRIPOS>ATOM
     1  N1         2.2453      1.7057     -0.5348  N       1  LIG       0.0000
     2  C2         1.8403      0.5082     -1.1738  C       1  LIG       0.0000
     3  O3         0.5383      0.1450     -1.4950  O       1  LIG       0.0000
     4  C4        -0.4664     -0.1695     -0.7066  C       1  LIG       0.0000
     5  C5        -0.1973      0.5035      0.4646  C       1  LIG       0.0000
     6  C6        -0.8939     -0.1741      1.4028  C       1  LIG       0.0000
     7  C7        -1.6680     -1.1853      0.7846  C       1  LIG       0.0000
     8  N8        -1.4127     -1.1549     -0.5656  N       1  LIG       0.0000
     9  H9         2.0320      2.1734      0.2172  H       1  LIG       0.0000
    10  H10        2.4951     -0.2031     -1.3453  H       1  LIG       0.0000
    11  H11        0.4358      1.4115      0.5077  H       1  LIG       0.0000
    12  H12       -0.7373      0.0494      2.4166  H       1  LIG       0.0000
    13  H13       -2.3226     -1.8772      1.2695  H       1  LIG       0.0000
    14  H14       -1.8885     -1.7328     -1.2420  H       1  LIG       0.0000
@<TRIPOS>BOND
    1     2    10  1
    2     6    12  1
    3     1     9  1
    4     5    11  1
    5     5     6  ar
    6     6     7  ar
    7     4     5  ar
    8     1     2  1
    9     2     3  1
   10     7    13  1
   11     7     8  ar
   12     4     8  ar
   13     3     4  1
   14     8    14  1
