@<TRIPOS>MOLECULE
generated_molecule
22 22 0 0 0
SMALL
NO_CHARGES

@<TRIPOS>ATOM
     1  C1         1.7107      0.7595      0.5478  C       1  LIG       0.0000
     2  N2         0.7675      0.7308     -0.5461  N       1  LIG       0.0000
     3  C3         0.6702      0.0519     -1.7943  C       1  LIG       0.0000
     4  C4         0.3798     -1.3706     -1.1973  C       1  LIG       0.0000
     5  C5        -0.3336     -1.4388      0.2438  C       1  LIG       0.0000
     6  C6        -1.4892     -0.6488      1.0455  C       1  LIG       0.0000
     7  C7        -1.4726      0.9580      0.9633  C       1  LIG       0.0000
     8  C8        -0.2447      1.4769      0.1033  C       1  LIG       0.0000
     9  O9        -0.0006      2.6604     -0.1445  O       1  LIG       0.0000
    10  H10        2.1931      1.7390      0.4871  H       1  LIG       0.0000
    11  H11        2.4185     -0.0695      0.5046  H       1  LIG       0.0000
    12  H12        1.1551      0.6874      1.5163  H       1  LIG       0.0000
    13  H13        0.9137     -0.3902     -2.7621  H       1  LIG       0.0000
    14  H14        0.4802      1.0096     -2.2559  H       1  LIG       0.0000
    15  H15        1.4322     -1.4823     -1.4763  H       1  LIG       0.0000
    16  H16       -0.2513     -2.1221     -1.7309  H       1  LIG       0.0000
    17  H17        0.5621     -1.1417      0.7138  H       1  LIG       0.0000
    18  H18       -0.8430     -2.3937      0.2860  H       1  LIG       0.0000
    19  H19       -2.3343     -0.2712      1.7759  H       1  LIG       0.0000
    20  H20       -1.6762     -1.6999      1.1036  H       1  LIG       0.0000
    21  H21       -1.5519      2.0293      1.1721  H       1  LIG       0.0000
    22  H22       -2.4857      0.9260      1.4442  H       1  LIG       0.0000
@<TRIPOS>BOND
    1     5    18  1
    2     4    16  1
    3     6    20  1
    4     4     5  1
    5     5     6  1
    6     5    17  1
    7     4    15  1
    8     6    19  1
    9     3     4  1
   10     6     7  1
   11     1    11  1
   12     2     3  1
   13     3    14  1
   14     3    13  1
   15     7     8  1
   16     7    22  1
   17     7    21  1
   18     1     2  1
   19     2     8  1
   20     1    10  1
   21     1    12  1
   22     8     9  2
