@<TRIPOS>MOLECULE
generated_molecule
16 17 0 0 0
SMALL
NO_CHARGES

@<TRIPOS>ATOM
     1  C1         0.7506     -0.6529     -1.6523  C       1  LIG       0.0000
     2  C2         0.8184     -0.6042     -0.1272  C       1  LIG       0.0000
     3  C3        -0.6027     -1.0854     -0.1295  C       1  LIG       0.0000
     4  O4        -1.1134     -2.1791     -0.3890  O       1  LIG       0.0000
     5  C5        -1.2071      0.2120      0.3295  C       1  LIG       0.0000
     6  N6        -1.5685      1.2690      1.3224  N       1  LIG       0.0000
     7  C7        -0.1092      1.0232      1.1299  C       1  LIG       0.0000
     8  C8         1.2043      0.7167      0.4915  C       1  LIG       0.0000
     9  O9         2.2227      1.4273      0.5638  O       1  LIG       0.0000
    10  H10        1.7310     -0.6473     -2.1479  H       1  LIG       0.0000
    11  H11        0.2177      0.2527     -1.9464  H       1  LIG       0.0000
    12  H12        0.1729     -1.5369     -1.9107  H       1  LIG       0.0000
    13  H13        1.4819     -1.1216      0.5695  H       1  LIG       0.0000
    14  H14       -2.1267      0.2975     -0.2140  H       1  LIG       0.0000
    15  H15       -2.0520      0.9993      2.1382  H       1  LIG       0.0000
    16  H16        0.1800      1.6297      1.9723  H       1  LIG       0.0000
@<TRIPOS>BOND
    1     3     4  2
    2     5    14  1
    3     3     5  1
    4     2     3  1
    5     1    11  1
    6     5     6  1
    7     5     7  1
    8     2    13  1
    9     1     2  1
   10     2     8  1
   11     1    10  1
   12     1    12  1
   13     6    15  1
   14     6     7  1
   15     7     8  1
   16     7    16  1
   17     8     9  2
