@<TRIPOS>MOLECULE
generated_molecule
17 18 0 0 0
SMALL
NO_CHARGES

@<TRIPOS>ATOM
     1  O1         2.4922     -1.0255     -0.7169  O       1  LIG       0.0000
     2  C2         1.3706     -0.9960     -1.4501  C       1  LIG       0.0000
     3  C3         0.2834     -0.6908     -0.4116  C       1  LIG       0.0000
     4  C4        -0.0649      0.7077      0.1060  C       1  LIG       0.0000
     5  C5        -1.0356      0.1250      1.1718  C       1  LIG       0.0000
     6  C6        -1.3851      1.5995      1.0984  C       1  LIG       0.0000
     7  C7        -1.6095      2.7724      0.8961  C       1  LIG       0.0000
     8  C8        -0.9849     -1.2049      0.3956  C       1  LIG       0.0000
     9  O9         0.0678     -2.0232     -0.0577  O       1  LIG       0.0000
    10  H10        2.9673     -1.1083      0.0839  H       1  LIG       0.0000
    11  H11        0.9799     -1.8880     -1.8652  H       1  LIG       0.0000
    12  H12        1.6175     -0.2672     -2.2001  H       1  LIG       0.0000
    13  H13        0.4540      0.9625     -0.7798  H       1  LIG       0.0000
    14  H14       -0.3241      1.5667      0.7367  H       1  LIG       0.0000
    15  H15       -1.2414     -0.3785      2.1159  H       1  LIG       0.0000
    16  H16       -1.8036      3.7642      0.6339  H       1  LIG       0.0000
    17  H17       -1.7836     -1.9156      0.2429  H       1  LIG       0.0000
@<TRIPOS>BOND
    1     1    10  1
    2     8     9  1
    3     3     9  1
    4     2    11  1
    5     8    17  1
    6     1     2  1
    7     3     8  1
    8     5     8  1
    9     2     3  1
   10     2    12  1
   11     7    16  1
   12     3     4  1
   13     6     7  3
   14     5     6  1
   15     4     5  1
   16     5    15  1
   17     4    14  1
   18     4    13  1
