@<TRIPOS>MOLECULE
generated_molecule
17 17 0 0 0
SMALL
NO_CHARGES

@<TRIPOS>ATOM
     1  C1         0.6285     -1.2677      1.7729  C       1  LIG       0.0000
     2  O2         0.2008      0.0259      1.4461  O       1  LIG       0.0000
     3  C3         0.1881      0.7682      0.3416  C       1  LIG       0.0000
     4  C4         1.4599      1.2488     -0.3693  C       1  LIG       0.0000
     5  C5         0.2202      2.1415     -0.3875  C       1  LIG       0.0000
     6  C6        -0.9466      0.2092     -0.2564  C       1  LIG       0.0000
     7  C7        -1.5270     -0.4637     -0.8436  C       1  LIG       0.0000
     8  C8        -2.0190     -1.5697     -1.4939  C       1  LIG       0.0000
     9  O9        -1.8751     -1.7789     -2.6871  O       1  LIG       0.0000
    10  H10        0.0730     -1.7142      2.6285  H       1  LIG       0.0000
    11  H11        1.7066     -1.2089      1.9839  H       1  LIG       0.0000
    12  H12        0.4595     -1.8666      0.8594  H       1  LIG       0.0000
    13  H13        1.7783      1.5964     -1.3530  H       1  LIG       0.0000
    14  H14        2.1575      0.7109      0.2285  H       1  LIG       0.0000
    15  H15       -0.6839      2.5562      0.0623  H       1  LIG       0.0000
    16  H16        0.6020      2.6670     -1.2625  H       1  LIG       0.0000
    17  H17       -2.4226     -2.0544     -0.6699  H       1  LIG       0.0000
@<TRIPOS>BOND
    1     8     9  2
    2     8    17  1
    3     7     8  1
    4     6     7  3
    5     3     6  1
    6     5    16  1
    7     4    13  1
    8     3     5  1
    9     3     4  1
   10     2     3  1
   11     4     5  1
   12     5    15  1
   13     4    14  1
   14     1    11  1
   15     1     2  1
   16     1    10  1
   17     1    12  1
