@<TRIPOS>MOLECULE
generated_molecule
20 22 0 0 0
SMALL
NO_CHARGES

@<TRIPOS>ATOM
     1  C1        -1.5360      0.3342     -2.2413  C       1  LIG       0.0000
     2  C2        -0.2840      0.0941     -1.3124  C       1  LIG       0.0000
     3  O3        -0.1220     -1.1745     -0.9466  O       1  LIG       0.0000
     4  C4        -0.1610      0.6009      0.1552  C       1  LIG       0.0000
     5  N5        -1.3041      1.2903      0.7580  N       1  LIG       0.0000
     6  C6        -0.5908      0.2521      1.6028  C       1  LIG       0.0000
     7  C7         0.7472     -0.4440      1.6822  C       1  LIG       0.0000
     8  C8         2.1849     -0.5747      1.1563  C       1  LIG       0.0000
     9  C9         1.2683      0.5409      0.5746  C       1  LIG       0.0000
    10  H10       -2.0414     -0.6305     -2.4179  H       1  LIG       0.0000
    11  H11       -2.2581      1.0163     -1.8014  H       1  LIG       0.0000
    12  H12       -1.1587      0.7684     -3.2220  H       1  LIG       0.0000
    13  H13        0.4641      0.4115     -2.0045  H       1  LIG       0.0000
    14  H14        0.1454     -1.8315     -0.3572  H       1  LIG       0.0000
    15  H15       -2.3049      1.0237      0.9270  H       1  LIG       0.0000
    16  H16       -1.2471      0.0481      2.4428  H       1  LIG       0.0000
    17  H17        0.8338     -1.2688      2.3715  H       1  LIG       0.0000
    18  H18        3.0037     -0.3879      0.4371  H       1  LIG       0.0000
    19  H19        2.3743     -1.3376      1.9363  H       1  LIG       0.0000
    20  H20        1.9862      1.2690      0.2592  H       1  LIG       0.0000
@<TRIPOS>BOND
    1     5    15  1
    2     1    11  1
    3     1    12  1
    4     5     6  1
    5     4     5  1
    6     6    16  1
    7     1    10  1
    8     1     2  1
    9     4     6  1
   10     6     7  1
   11     8    19  1
   12     2     4  1
   13     4     9  1
   14     2    13  1
   15     2     3  1
   16     7     8  1
   17     7    17  1
   18     7     9  1
   19     8     9  1
   20     8    18  1
   21     9    20  1
   22     3    14  1
