@<TRIPOS>MOLECULE
generated_molecule
17 17 0 0 0
SMALL
NO_CHARGES

@<TRIPOS>ATOM
     1  N1        -0.8106      0.9617      1.6847  N       1  LIG       0.0000
     2  C2         0.1918     -0.1333      1.6172  C       1  LIG       0.0000
     3  C3        -0.0578     -0.8284      0.2651  C       1  LIG       0.0000
     4  O4         0.1479     -1.0458     -1.1189  O       1  LIG       0.0000
     5  C5         0.5400     -0.1823     -2.1467  C       1  LIG       0.0000
     6  C6         0.5608      1.0494     -1.2371  C       1  LIG       0.0000
     7  O7         0.6227      0.1912     -0.2458  O       1  LIG       0.0000
     8  C8        -1.0011     -1.9323      0.6556  C       1  LIG       0.0000
     9  N9        -1.7392     -2.7751      0.9606  N       1  LIG       0.0000
    10  H10       -1.1076      1.2193      0.7529  H       1  LIG       0.0000
    11  H11       -1.1200      1.3553      2.5436  H       1  LIG       0.0000
    12  H12        1.1857      0.2678      1.6397  H       1  LIG       0.0000
    13  H13        0.2201     -0.8381      2.4519  H       1  LIG       0.0000
    14  H14        0.7574      0.6169     -2.8648  H       1  LIG       0.0000
    15  H15        0.5782     -1.1714     -2.5182  H       1  LIG       0.0000
    16  H16        1.4086      1.6559     -1.0536  H       1  LIG       0.0000
    17  H17       -0.3768      1.5891     -1.3862  H       1  LIG       0.0000
@<TRIPOS>BOND
    1     2    13  1
    2     1    10  1
    3     1     2  1
    4     1    11  1
    5     2    12  1
    6     2     3  1
    7     3     8  1
    8     3     7  1
    9     3     4  1
   10     8     9  3
   11     6     7  1
   12     4     5  1
   13     6    17  1
   14     6    16  1
   15     5     6  1
   16     5    14  1
   17     5    15  1
