@<TRIPOS>MOLECULE
generated_molecule
18 18 0 0 0
SMALL
NO_CHARGES

@<TRIPOS>ATOM
     1  O1        -1.4798      0.6505      2.6054  O       1  LIG       0.0000
     2  C2        -0.2264      0.0096      2.4673  C       1  LIG       0.0000
     3  C3         0.2878     -0.4792      0.8811  C       1  LIG       0.0000
     4  C4         0.3812     -0.3028     -0.7186  C       1  LIG       0.0000
     5  O5        -0.6370     -0.9773     -0.1900  O       1  LIG       0.0000
     6  C6         1.4641     -0.4365     -1.8848  C       1  LIG       0.0000
     7  C7         0.4918      0.6359     -2.0164  C       1  LIG       0.0000
     8  C8        -0.6984      1.5619     -2.0223  C       1  LIG       0.0000
     9  N9        -1.6015      2.2645     -2.0774  N       1  LIG       0.0000
    10  H10       -2.4251      0.7883      2.5609  H       1  LIG       0.0000
    11  H11       -0.4715     -0.8398      3.1373  H       1  LIG       0.0000
    12  H12        0.4633      0.7409      2.9067  H       1  LIG       0.0000
    13  H13       -0.4752     -1.1990      0.8741  H       1  LIG       0.0000
    14  H14        1.2963     -0.2745      1.0165  H       1  LIG       0.0000
    15  H15       -1.2285     -1.7240     -0.2341  H       1  LIG       0.0000
    16  H16        1.6346     -1.4903     -1.8721  H       1  LIG       0.0000
    17  H17        2.1692      0.1178     -2.5168  H       1  LIG       0.0000
    18  H18        1.0550      0.9542     -2.9167  H       1  LIG       0.0000
@<TRIPOS>BOND
    1     3    14  1
    2     5    15  1
    3     4     5  1
    4     1    10  1
    5     7    18  1
    6     2    11  1
    7     3     4  1
    8     2     3  1
    9     3    13  1
   10     4     7  1
   11     4     6  1
   12     7     8  1
   13     6     7  1
   14     8     9  3
   15     1     2  1
   16     2    12  1
   17     6    16  1
   18     6    17  1
