@<TRIPOS>MOLECULE
generated_molecule
16 16 0 0 0
SMALL
NO_CHARGES

@<TRIPOS>ATOM
     1  C1        -0.2873      1.6068      0.4040  C       1  LIG       0.0000
     2  C2        -0.5212     -0.0154      0.5064  C       1  LIG       0.0000
     3  C3        -0.4087     -0.6683     -0.6737  C       1  LIG       0.0000
     4  N4        -0.0402     -1.9522     -0.0499  N       1  LIG       0.0000
     5  C5         0.0051     -0.3091     -1.6803  C       1  LIG       0.0000
     6  O6        -0.4815     -0.2182     -2.8644  O       1  LIG       0.0000
     7  N7         0.8004      0.2361     -0.7747  N       1  LIG       0.0000
     8  N8         0.8319     -0.0606      0.5691  N       1  LIG       0.0000
     9  C9        -0.1329     -0.2227      1.4573  C       1  LIG       0.0000
    10  H10       -0.8858      2.0012      1.1807  H       1  LIG       0.0000
    11  H11       -0.5133      1.9655     -0.5893  H       1  LIG       0.0000
    12  H12        0.7575      1.8006      0.6229  H       1  LIG       0.0000
    13  H13       -0.2276     -2.0624      0.9151  H       1  LIG       0.0000
    14  H14        0.6046     -2.5450     -0.5821  H       1  LIG       0.0000
    15  H15        1.3000      0.9980     -0.8833  H       1  LIG       0.0000
    16  H16       -0.8009     -0.5544      2.4423  H       1  LIG       0.0000
@<TRIPOS>BOND
    1     1    11  1
    2     4    13  1
    3     9    16  1
    4     8     9  ar
    5     7     8  ar
    6     4    14  1
    7     2     9  ar
    8     7    15  1
    9     5     7  ar
   10     1     2  1
   11     2     3  ar
   12     1    10  1
   13     1    12  1
   14     5     6  2
   15     3     5  ar
   16     3     4  1
