@<TRIPOS>MOLECULE
generated_molecule
19 21 0 0 0
SMALL
NO_CHARGES

@<TRIPOS>ATOM
     1  C1         2.6323     -0.8564      0.1156  C       1  LIG       0.0000
     2  C2         1.0892     -0.6950      0.0155  C       1  LIG       0.0000
     3  C3         0.4893      0.6802     -0.3379  C       1  LIG       0.0000
     4  C4        -0.9627      1.1177     -0.6580  C       1  LIG       0.0000
     5  C5        -2.0691      0.3364     -1.3713  C       1  LIG       0.0000
     6  C6        -1.8594      0.1286      0.1499  C       1  LIG       0.0000
     7  C7        -1.1310      0.0109      1.4340  C       1  LIG       0.0000
     8  O8        -1.4737     -0.1522      2.6113  O       1  LIG       0.0000
     9  C9         0.2873      0.0861      1.0711  C       1  LIG       0.0000
    10  H10        3.1354      0.0205      0.5598  H       1  LIG       0.0000
    11  H11        2.7751     -1.6833      0.7787  H       1  LIG       0.0000
    12  H12        2.9628     -0.9773     -0.9149  H       1  LIG       0.0000
    13  H13        0.6510     -1.6015     -0.3384  H       1  LIG       0.0000
    14  H14        1.1732      1.2814     -0.8664  H       1  LIG       0.0000
    15  H15       -0.9666      2.1254     -1.0055  H       1  LIG       0.0000
    16  H16       -3.0634     -0.1417     -1.3591  H       1  LIG       0.0000
    17  H17       -1.6548      0.5746     -2.3406  H       1  LIG       0.0000
    18  H18       -2.7608     -0.4306      0.4127  H       1  LIG       0.0000
    19  H19        0.7458      0.1762      2.0435  H       1  LIG       0.0000
@<TRIPOS>BOND
    1     5    16  1
    2     4    15  1
    3     4     5  1
    4     5    17  1
    5     5     6  1
    6     4     6  1
    7     3     4  1
    8     6    18  1
    9     6     7  1
   10     3    14  1
   11     2     3  1
   12     3     9  1
   13     1    11  1
   14     7     9  1
   15     7     8  2
   16     1     2  1
   17     2     9  1
   18     2    13  1
   19     1    10  1
   20     1    12  1
   21     9    19  1
