@<TRIPOS>MOLECULE
generated_molecule
16 17 0 0 0
SMALL
NO_CHARGES

@<TRIPOS>ATOM
     1  N1         0.4122      2.2904      0.2553  N       1  LIG       0.0000
     2  C2         0.6253      0.7965      0.1072  C       1  LIG       0.0000
     3  C3         2.1032      1.0659      0.3261  C       1  LIG       0.0000
     4  N4         3.2216      1.3138      0.4864  N       1  LIG       0.0000
     5  C5        -0.8108      0.4788     -0.2251  C       1  LIG       0.0000
     6  N6        -1.6499     -0.6605     -0.3217  N       1  LIG       0.0000
     7  C7        -0.9251     -1.7005      0.3445  C       1  LIG       0.0000
     8  C8         0.1389     -0.6757     -0.0279  C       1  LIG       0.0000
     9  O9         0.7686     -1.7373     -0.5091  O       1  LIG       0.0000
    10  H10        0.1957      2.6755      1.1562  H       1  LIG       0.0000
    11  H11        0.3777      2.8337     -0.6009  H       1  LIG       0.0000
    12  H12       -1.1518      1.4554     -0.3081  H       1  LIG       0.0000
    13  H13       -2.2331     -0.9433     -1.0663  H       1  LIG       0.0000
    14  H14       -0.6184     -2.7393      0.0173  H       1  LIG       0.0000
    15  H15       -1.4907     -1.8244      1.2557  H       1  LIG       0.0000
    16  H16        1.0365     -2.6289     -0.8895  H       1  LIG       0.0000
@<TRIPOS>BOND
    1     9    16  1
    2     3     4  3
    3     8     9  1
    4     2     3  1
    5     1     2  1
    6     1    11  1
    7     1    10  1
    8     2     8  1
    9     2     5  1
   10     7     8  1
   11     5     8  1
   12     7    15  1
   13     7    14  1
   14     6     7  1
   15     5    12  1
   16     5     6  1
   17     6    13  1
