@<TRIPOS>MOLECULE
generated_molecule
19 19 0 0 0
SMALL
NO_CHARGES

@<TRIPOS>ATOM
     1  C1         0.5778      2.5638      0.2283  C       1  LIG       0.0000
     2  C2        -0.1311      1.9722     -0.5242  C       1  LIG       0.0000
     3  C3        -0.9852      1.0602     -1.3351  C       1  LIG       0.0000
     4  C4        -0.7272     -0.0030     -0.3199  C       1  LIG       0.0000
     5  C5        -0.7418      0.1469      1.0029  C       1  LIG       0.0000
     6  C6         0.6411      0.0376      1.6176  C       1  LIG       0.0000
     7  O7         0.9696     -1.0812      0.9486  O       1  LIG       0.0000
     8  C8         0.6692     -1.9813     -0.0050  C       1  LIG       0.0000
     9  C9        -0.1756     -1.2186     -1.0464  C       1  LIG       0.0000
    10  H10        1.2213      3.0567      0.9016  H       1  LIG       0.0000
    11  H11       -1.9907      1.3481     -1.5596  H       1  LIG       0.0000
    12  H12       -0.7184      0.7835     -2.3429  H       1  LIG       0.0000
    13  H13       -1.6028      0.2945      1.5831  H       1  LIG       0.0000
    14  H14        0.4535      0.0719      2.7066  H       1  LIG       0.0000
    15  H15        1.4392      0.7080      1.3430  H       1  LIG       0.0000
    16  H16        1.5788     -2.2358      0.4533  H       1  LIG       0.0000
    17  H17        0.0930     -2.8518     -0.3377  H       1  LIG       0.0000
    18  H18       -0.0916     -0.4840     -1.8494  H       1  LIG       0.0000
    19  H19       -0.4790     -2.1876     -1.4649  H       1  LIG       0.0000
@<TRIPOS>BOND
    1     5    13  1
    2     6    14  1
    3     6    15  1
    4     5     6  1
    5     4     5  2
    6     3    11  1
    7     6     7  1
    8     3     4  1
    9     2     3  1
   10     3    12  1
   11     4     9  1
   12     7     8  1
   13     1     2  3
   14     1    10  1
   15     8    16  1
   16     8     9  1
   17     8    17  1
   18     9    19  1
   19     9    18  1
