@<TRIPOS>MOLECULE
generated_molecule
22 24 0 0 0
SMALL
NO_CHARGES

@<TRIPOS>ATOM
     1  C1        -1.6191      0.1291     -2.0354  C       1  LIG       0.0000
     2  C2        -0.2564      0.4386     -1.0862  C       1  LIG       0.0000
     3  N3        -1.5268     -0.1582     -0.7362  N       1  LIG       0.0000
     4  C4        -2.0548     -1.0008      0.2264  C       1  LIG       0.0000
     5  C5        -1.0318     -0.9147      1.4049  C       1  LIG       0.0000
     6  C6         0.4644     -0.5319      1.1543  C       1  LIG       0.0000
     7  C7         0.9353      0.4124     -0.0771  C       1  LIG       0.0000
     8  C8         1.8995      1.6618      0.2266  C       1  LIG       0.0000
     9  C9         2.5619      0.3410     -0.0859  C       1  LIG       0.0000
    10  H10       -1.3877     -0.2849     -3.0519  H       1  LIG       0.0000
    11  H11       -2.7232      0.3469     -2.1261  H       1  LIG       0.0000
    12  H12        0.3664      1.1501     -1.6626  H       1  LIG       0.0000
    13  H13       -2.6628     -1.5926      0.9897  H       1  LIG       0.0000
    14  H14       -2.5960     -1.0602     -0.6957  H       1  LIG       0.0000
    15  H15       -2.0996     -1.1278      1.6788  H       1  LIG       0.0000
    16  H16       -0.4278     -0.9562      2.3424  H       1  LIG       0.0000
    17  H17        1.5442     -0.3454      0.9997  H       1  LIG       0.0000
    18  H18        0.2877     -1.0980      2.0740  H       1  LIG       0.0000
    19  H19        1.9658      2.4236     -0.5228  H       1  LIG       0.0000
    20  H20        2.1210      1.9937      1.2614  H       1  LIG       0.0000
    21  H21        2.8410     -0.2188     -0.9575  H       1  LIG       0.0000
    22  H22        3.3989      0.3924      0.6793  H       1  LIG       0.0000
@<TRIPOS>BOND
    1     6    17  1
    2     5    16  1
    3     6    18  1
    4     5     6  1
    5     6     7  1
    6     5    15  1
    7     4     5  1
    8     8    19  1
    9     9    22  1
   10     4    14  1
   11     7     8  1
   12     8     9  1
   13     8    20  1
   14     7     9  1
   15     2     7  1
   16     4    13  1
   17     3     4  1
   18     9    21  1
   19     1    11  1
   20     1     2  1
   21     2     3  1
   22     2    12  1
   23     1     3  1
   24     1    10  1
