@<TRIPOS>MOLECULE
generated_molecule
17 17 0 0 0
SMALL
NO_CHARGES

@<TRIPOS>ATOM
     1  O1         2.5081      0.0697      1.2313  O       1  LIG       0.0000
     2  C2         1.3834      0.2088      0.7572  C       1  LIG       0.0000
     3  N3         0.5874      1.2904      1.2248  N       1  LIG       0.0000
     4  C4        -0.8575      1.4725      0.8257  C       1  LIG       0.0000
     5  C5        -1.9104      0.4800      0.9971  C       1  LIG       0.0000
     6  N6        -2.8348     -0.3925      1.0792  N       1  LIG       0.0000
     7  C7         0.9003     -0.8232     -0.2219  C       1  LIG       0.0000
     8  C8        -0.1792     -1.6771     -1.0402  C       1  LIG       0.0000
     9  C9         0.4137     -0.4869     -1.6828  C       1  LIG       0.0000
    10  H10        0.9890      1.9865      1.8081  H       1  LIG       0.0000
    11  H11       -0.2619      2.2787      0.7288  H       1  LIG       0.0000
    12  H12       -1.9610      1.4752      0.4196  H       1  LIG       0.0000
    13  H13        1.5212     -1.3160      0.4435  H       1  LIG       0.0000
    14  H14       -0.0581     -2.4457     -1.7974  H       1  LIG       0.0000
    15  H15       -1.0685     -1.7855     -0.4412  H       1  LIG       0.0000
    16  H16        0.0526     -0.8544     -2.6434  H       1  LIG       0.0000
    17  H17        0.7757      0.5195     -1.6884  H       1  LIG       0.0000
@<TRIPOS>BOND
    1     8    15  1
    2     8    14  1
    3     8     9  1
    4     7     8  1
    5     1     2  2
    6     5     6  3
    7     9    16  1
    8     7     9  1
    9     9    17  1
   10     2     7  1
   11     2     3  1
   12     4    12  1
   13     7    13  1
   14     4     5  1
   15     3     4  1
   16     4    11  1
   17     3    10  1
