@<TRIPOS>MOLECULE
generated_molecule
23 23 0 0 0
SMALL
NO_CHARGES

@<TRIPOS>ATOM
     1  C1         0.9962      1.9205     -0.3126  C       1  LIG       0.0000
     2  C2        -0.4921      1.2279     -0.0798  C       1  LIG       0.0000
     3  C3        -1.0599      0.0814      0.8547  C       1  LIG       0.0000
     4  C4        -0.2614     -0.8328      1.7590  C       1  LIG       0.0000
     5  C5         0.8503     -0.2165      0.9793  C       1  LIG       0.0000
     6  C6         0.6842      0.0916     -0.3540  C       1  LIG       0.0000
     7  C7         0.0998     -0.7936     -1.4725  C       1  LIG       0.0000
     8  C8        -0.7001     -1.8870     -0.7796  C       1  LIG       0.0000
     9  O9        -1.1233     -1.0395      0.1111  O       1  LIG       0.0000
    10  H10        0.9754      3.0299     -0.0959  H       1  LIG       0.0000
    11  H11        1.2994      1.7319     -1.3547  H       1  LIG       0.0000
    12  H12        1.7281      1.4603      0.3994  H       1  LIG       0.0000
    13  H13       -0.7054      0.6722     -0.9261  H       1  LIG       0.0000
    14  H14       -0.9053      2.1777      0.2402  H       1  LIG       0.0000
    15  H15       -1.8978      0.5138      1.3987  H       1  LIG       0.0000
    16  H16       -1.1435     -1.0093      2.4298  H       1  LIG       0.0000
    17  H17        0.4231     -1.6246      2.0899  H       1  LIG       0.0000
    18  H18        1.6303     -0.0621      1.6912  H       1  LIG       0.0000
    19  H19        0.9443      1.0384     -0.6943  H       1  LIG       0.0000
    20  H20        0.3753      0.1088     -2.0453  H       1  LIG       0.0000
    21  H21       -0.1087     -1.5994     -2.1860  H       1  LIG       0.0000
    22  H22       -0.4147     -2.5195     -1.6343  H       1  LIG       0.0000
    23  H23       -1.1940     -2.4701     -0.0180  H       1  LIG       0.0000
@<TRIPOS>BOND
    1     5    18  1
    2     4    16  1
    3     2    13  1
    4     3    15  1
    5     1    11  1
    6     4     5  1
    7     5     6  2
    8     3     4  1
    9     4    17  1
   10     6    19  1
   11     2     3  1
   12     3     9  1
   13     1     2  1
   14     2    14  1
   15     6     7  1
   16     1    10  1
   17     1    12  1
   18     8    22  1
   19     8     9  1
   20     7     8  1
   21     8    23  1
   22     7    20  1
   23     7    21  1
