@<TRIPOS>MOLECULE
generated_molecule
16 18 0 0 0
SMALL
NO_CHARGES

@<TRIPOS>ATOM
     1  O1        -1.7094     -1.0767     -1.1086  O       1  LIG       0.0000
     2  C2        -0.9497     -0.4065     -0.2592  C       1  LIG       0.0000
     3  C3        -0.6644      0.0691      1.1582  C       1  LIG       0.0000
     4  C4         0.8660      0.0127      1.5158  C       1  LIG       0.0000
     5  C5         1.4702     -0.2325      0.1205  C       1  LIG       0.0000
     6  O6         2.6674     -0.1556     -0.1336  O       1  LIG       0.0000
     7  C7         0.4088     -0.5343     -0.9205  C       1  LIG       0.0000
     8  N8        -0.0420      0.8356     -1.2692  N       1  LIG       0.0000
     9  C9        -0.6830      1.0649     -0.0103  C       1  LIG       0.0000
    10  H10       -2.1545     -1.4873     -1.8944  H       1  LIG       0.0000
    11  H11       -1.4881     -0.0135      1.8528  H       1  LIG       0.0000
    12  H12        1.0203     -0.7463      2.2927  H       1  LIG       0.0000
    13  H13        1.3169      0.9357      1.9173  H       1  LIG       0.0000
    14  H14        0.3695     -1.4216     -1.5654  H       1  LIG       0.0000
    15  H15        0.4335      1.1342     -2.0542  H       1  LIG       0.0000
    16  H16       -0.8615      2.0220      0.3580  H       1  LIG       0.0000
@<TRIPOS>BOND
    1     5     6  2
    2     4    13  1
    3     4     5  1
    4     5     7  1
    5     4    12  1
    6     3     4  1
    7     7    14  1
    8     2     7  1
    9     7     8  1
   10     2     3  1
   11     3    11  1
   12     3     9  1
   13     1     2  1
   14     2     9  1
   15     1    10  1
   16     8    15  1
   17     8     9  1
   18     9    16  1
