@<TRIPOS>MOLECULE
generated_molecule
23 24 0 0 0
SMALL
NO_CHARGES

@<TRIPOS>ATOM
     1  C1        -0.8264     -1.1301     -1.3787  C       1  LIG       0.0000
     2  C2        -1.4533     -1.1935     -0.0331  C       1  LIG       0.0000
     3  C3        -0.4962     -0.8128      1.0204  C       1  LIG       0.0000
     4  C4        -0.0665     -0.2838     -0.3543  C       1  LIG       0.0000
     5  C5         0.8737     -0.0575      0.7809  C       1  LIG       0.0000
     6  C6         1.9876      0.0611      0.1323  C       1  LIG       0.0000
     7  C7         1.4442      1.1815     -0.6499  C       1  LIG       0.0000
     8  C8        -0.0921      1.3671     -0.0785  C       1  LIG       0.0000
     9  C9        -1.0377      0.2213      0.6359  C       1  LIG       0.0000
    10  H10       -0.0311     -1.6235     -1.9588  H       1  LIG       0.0000
    11  H11       -1.6984     -1.1104     -2.0038  H       1  LIG       0.0000
    12  H12       -2.1510     -2.0816     -0.0733  H       1  LIG       0.0000
    13  H13       -1.0079     -1.5544      1.5838  H       1  LIG       0.0000
    14  H14        0.1641     -0.1443      1.5587  H       1  LIG       0.0000
    15  H15        0.1064      0.4505     -1.1810  H       1  LIG       0.0000
    16  H16        0.7927      0.1302      1.7991  H       1  LIG       0.0000
    17  H17        2.8874     -0.5758      0.2719  H       1  LIG       0.0000
    18  H18        1.9461      0.7168     -1.4893  H       1  LIG       0.0000
    19  H19        1.7290      2.2440     -0.6522  H       1  LIG       0.0000
    20  H20        0.4774      2.1981      0.3267  H       1  LIG       0.0000
    21  H21       -1.0158      1.5770     -0.5376  H       1  LIG       0.0000
    22  H22       -2.0971      0.3654      0.7581  H       1  LIG       0.0000
    23  H23       -0.4348      0.0546      1.5226  H       1  LIG       0.0000
@<TRIPOS>BOND
    1     7    18  1
    2     8    20  1
    3     6    17  1
    4     7    19  1
    5     7     8  1
    6     6     7  1
    7     8    21  1
    8     8     9  1
    9     5     6  2
   10     9    23  1
   11     9    22  1
   12     2     9  1
   13     5    16  1
   14     4     5  1
   15     1    11  1
   16     1     4  1
   17     1     2  1
   18     1    10  1
   19     4    15  1
   20     3     4  1
   21     2     3  1
   22     2    12  1
   23     3    13  1
   24     3    14  1
