@<TRIPOS>MOLECULE
generated_molecule
21 22 0 0 0
SMALL
NO_CHARGES

@<TRIPOS>ATOM
     1  C1        -0.0429     -0.2443      0.8871  C       1  LIG       0.0000
     2  C2         1.0141     -0.8953     -0.0659  C       1  LIG       0.0000
     3  C3         2.0652     -0.8041     -1.2228  C       1  LIG       0.0000
     4  O4         1.4695      0.3025     -1.8286  O       1  LIG       0.0000
     5  C5         0.6097      0.3977     -0.7779  C       1  LIG       0.0000
     6  C6         0.1488      1.7138     -0.2638  C       1  LIG       0.0000
     7  C7        -0.6738      0.4290      0.1169  C       1  LIG       0.0000
     8  C8        -2.1887      0.2777      0.1225  C       1  LIG       0.0000
     9  O9        -0.5997     -0.5868      1.0155  O       1  LIG       0.0000
    10  H10       -0.2392      0.8158      0.6732  H       1  LIG       0.0000
    11  H11        0.3801     -0.3226      1.8762  H       1  LIG       0.0000
    12  H12       -1.0050     -0.7469      0.7339  H       1  LIG       0.0000
    13  H13        1.2207     -1.9045      0.2549  H       1  LIG       0.0000
    14  H14        2.1460     -1.9119     -1.1754  H       1  LIG       0.0000
    15  H15        2.9472     -0.3094     -1.5477  H       1  LIG       0.0000
    16  H16        1.0818      2.0536      0.1386  H       1  LIG       0.0000
    17  H17       -0.5255      2.4063     -0.7078  H       1  LIG       0.0000
    18  H18       -2.3525     -0.4226      0.8925  H       1  LIG       0.0000
    19  H19       -2.6256      1.2536      0.3021  H       1  LIG       0.0000
    20  H20       -2.5928     -0.0926     -0.8456  H       1  LIG       0.0000
    21  H21       -0.2372     -1.4089      1.4219  H       1  LIG       0.0000
@<TRIPOS>BOND
    1     3    14  1
    2     3    15  1
    3     1    11  1
    4     2     3  1
    5     3     4  1
    6     2    13  1
    7     1     2  1
    8     2     5  1
    9     1    10  1
   10     1    12  1
   11     4     5  1
   12     5     7  1
   13     5     6  1
   14     8    19  1
   15     8    18  1
   16     7     8  1
   17     7     9  1
   18     6     7  1
   19     8    20  1
   20     9    21  1
   21     6    17  1
   22     6    16  1
