@<TRIPOS>MOLECULE
generated_molecule
19 20 0 0 0
SMALL
NO_CHARGES

@<TRIPOS>ATOM
     1  C1         1.4616     -0.9157     -0.9405  C       1  LIG       0.0000
     2  N2         0.6394     -0.8138      0.2491  N       1  LIG       0.0000
     3  C3         0.0562      0.4032      0.3538  C       1  LIG       0.0000
     4  C4         0.6147      1.5985     -0.1843  C       1  LIG       0.0000
     5  O5         0.1742      2.4990     -1.0538  O       1  LIG       0.0000
     6  C6         0.2272      0.1588      0.2542  C       1  LIG       0.0000
     7  C7        -0.8144     -0.9934      0.4842  C       1  LIG       0.0000
     8  C8        -1.9836     -0.5066      1.3184  C       1  LIG       0.0000
     9  N9        -1.0600      0.2721      1.0615  N       1  LIG       0.0000
    10  H10        2.3176     -0.2139     -0.8193  H       1  LIG       0.0000
    11  H11        1.6647     -1.9245     -1.0021  H       1  LIG       0.0000
    12  H12        0.9407     -0.5214     -1.8692  H       1  LIG       0.0000
    13  H13        1.3542      2.2847      0.0509  H       1  LIG       0.0000
    14  H14       -0.3752      2.9061     -1.7547  H       1  LIG       0.0000
    15  H15        1.2690     -0.1992      0.0841  H       1  LIG       0.0000
    16  H16       -1.0500     -1.1942     -0.5487  H       1  LIG       0.0000
    17  H17       -0.4172     -1.7328      1.1514  H       1  LIG       0.0000
    18  H18       -2.3336      0.2291      2.0163  H       1  LIG       0.0000
    19  H19       -2.6856     -1.3361      1.1487  H       1  LIG       0.0000
@<TRIPOS>BOND
    1     6    15  1
    2     4    13  1
    3     4     6  1
    4     4     5  1
    5     3     4  1
    6     6     9  1
    7     6     7  1
    8     5    14  1
    9     7    16  1
   10     3     9  1
   11     8     9  1
   12     7    17  1
   13     7     8  1
   14     2     3  1
   15     1    11  1
   16     8    18  1
   17     8    19  1
   18     1     2  1
   19     1    12  1
   20     1    10  1
