@<TRIPOS>MOLECULE
generated_molecule
18 19 0 0 0
SMALL
NO_CHARGES

@<TRIPOS>ATOM
     1  N1         1.0416     -0.5541     -2.6812  N       1  LIG       0.0000
     2  C2        -0.1864     -0.1353     -2.1759  C       1  LIG       0.0000
     3  O3        -0.5273      0.3921     -0.9845  O       1  LIG       0.0000
     4  C4        -0.8527      0.4203      0.3438  C       1  LIG       0.0000
     5  C5        -0.2964      0.2450      1.7655  C       1  LIG       0.0000
     6  C6         0.4406     -1.0840      1.5203  C       1  LIG       0.0000
     7  C7         0.1546     -0.6470      0.0875  C       1  LIG       0.0000
     8  C8         0.1084      0.8917     -0.1565  C       1  LIG       0.0000
     9  C9        -0.0920      1.5202      1.0305  C       1  LIG       0.0000
    10  H10        1.6319     -1.2703     -2.8575  H       1  LIG       0.0000
    11  H11       -0.9983     -0.2463     -2.7689  H       1  LIG       0.0000
    12  H12       -1.7310      0.9239      0.6397  H       1  LIG       0.0000
    13  H13       -0.4642      0.2659      2.8702  H       1  LIG       0.0000
    14  H14        0.2622     -1.3196      2.5723  H       1  LIG       0.0000
    15  H15        1.1795     -1.7605      1.0945  H       1  LIG       0.0000
    16  H16        0.2873     -1.4383     -0.6375  H       1  LIG       0.0000
    17  H17        0.1675      1.3021     -1.1168  H       1  LIG       0.0000
    18  H18       -0.1253      2.4941      1.4546  H       1  LIG       0.0000
@<TRIPOS>BOND
    1     7    16  1
    2     8    17  1
    3     7     8  1
    4     4     7  1
    5     6     7  1
    6     8     9  2
    7     4    12  1
    8     3     4  1
    9     2     3  1
   10     4     5  1
   11     1     2  1
   12     2    11  1
   13     1    10  1
   14     6    15  1
   15     6    14  1
   16     5     6  1
   17     5     9  1
   18     9    18  1
   19     5    13  1
