@<TRIPOS>MOLECULE
generated_molecule
17 17 0 0 0
SMALL
NO_CHARGES

@<TRIPOS>ATOM
     1  N1         1.3000      0.0043     -1.5944  N       1  LIG       0.0000
     2  H2         2.3152     -0.0831     -1.4026  H       1  LIG       0.0000
     3  H3         1.4333     -2.5449      1.1606  H       1  LIG       0.0000
     4  H4         0.9895     -0.1275     -2.5851  H       1  LIG       0.0000
     5  C5         0.4505      0.3032     -0.4239  C       1  LIG       0.0000
     6  C6        -0.7901      0.6486     -1.2394  C       1  LIG       0.0000
     7  C7        -1.5763      0.6005      0.0288  C       1  LIG       0.0000
     8  C8        -0.3678      0.2260      0.8751  C       1  LIG       0.0000
     9  C9         0.4152     -0.6560      1.9010  C       1  LIG       0.0000
    10  O10        0.4702     -0.5590      3.1237  O       1  LIG       0.0000
    11  O11        1.1131     -1.7384      1.5873  O       1  LIG       0.0000
    12  H12        1.3596      0.3592      0.1482  H       1  LIG       0.0000
    13  H13       -0.5965     -0.0047     -2.1202  H       1  LIG       0.0000
    14  H14       -1.2794      1.5484     -1.6024  H       1  LIG       0.0000
    15  H15       -2.4681      0.0935     -0.4092  H       1  LIG       0.0000
    16  H16       -2.0095      1.3537      0.7192  H       1  LIG       0.0000
    17  H17       -0.7589      0.5761      1.8332  H       1  LIG       0.0000
@<TRIPOS>BOND
    1     1     2  1
    2     1     4  1
    3     1     5  1
    4     3    11  1
    5     6    14  1
    6     5     6  1
    7     5    12  1
    8     5     8  1
    9     6    13  1
   10     9    11  1
   11     6     7  1
   12     8     9  1
   13     9    10  2
   14     7     8  1
   15     8    17  1
   16     7    16  1
   17     7    15  1
