@<TRIPOS>MOLECULE
generated_molecule
25 25 0 0 0
SMALL
NO_CHARGES

@<TRIPOS>ATOM
     1  C1         2.1239      0.4625      0.6306  C       1  LIG       0.0000
     2  C2         1.0584     -0.5339      1.1149  C       1  LIG       0.0000
     3  C3         0.1777     -1.8527      1.1130  C       1  LIG       0.0000
     4  O4         0.4718     -2.8017      0.2061  O       1  LIG       0.0000
     5  C5         0.0061      0.4837      0.6470  C       1  LIG       0.0000
     6  C6        -1.3136      0.2337     -0.0992  C       1  LIG       0.0000
     7  C7        -2.4918      1.1390      0.3462  C       1  LIG       0.0000
     8  C8        -0.1469      0.9049     -0.8626  C       1  LIG       0.0000
     9  C9         0.2526      0.5686     -2.3467  C       1  LIG       0.0000
    10  H10        1.7204      1.1568     -0.0895  H       1  LIG       0.0000
    11  H11        2.5118      1.0290      1.5240  H       1  LIG       0.0000
    12  H12        2.9885     -0.1031      0.1541  H       1  LIG       0.0000
    13  H13        1.5821     -1.1091      1.8852  H       1  LIG       0.0000
    14  H14       -0.7720     -2.1315      0.6348  H       1  LIG       0.0000
    15  H15        0.1388     -1.9358      2.1938  H       1  LIG       0.0000
    16  H16        0.5888     -3.1819     -0.7125  H       1  LIG       0.0000
    17  H17       -0.3541      1.0170      1.5209  H       1  LIG       0.0000
    18  H18       -1.4645     -0.8144     -0.1729  H       1  LIG       0.0000
    19  H19       -2.3386      1.5224      1.3911  H       1  LIG       0.0000
    20  H20       -3.3745      0.5073      0.3077  H       1  LIG       0.0000
    21  H21       -2.4784      1.9839     -0.3106  H       1  LIG       0.0000
    22  H22        0.0794      1.9138     -1.0027  H       1  LIG       0.0000
    23  H23       -0.5248     -0.0002     -2.9082  H       1  LIG       0.0000
    24  H24        0.3886      1.5674     -2.7989  H       1  LIG       0.0000
    25  H25        1.1703     -0.0258     -2.3655  H       1  LIG       0.0000
@<TRIPOS>BOND
    1     7    21  1
    2     7    20  1
    3     7    19  1
    4     6     7  1
    5     1    11  1
    6     6    18  1
    7     5     6  1
    8     6     8  1
    9     1    10  1
   10     1    12  1
   11     1     2  1
   12     2    13  1
   13     9    23  1
   14     9    25  1
   15     5     8  1
   16     2     5  1
   17     5    17  1
   18     8     9  1
   19     8    22  1
   20     2     3  1
   21     9    24  1
   22     3     4  1
   23     3    15  1
   24     3    14  1
   25     4    16  1
