@<TRIPOS>MOLECULE
generated_molecule
15 16 0 0 0
SMALL
NO_CHARGES

@<TRIPOS>ATOM
     1  O1         0.2204      0.8887      2.6149  O       1  LIG       0.0000
     2  C2         0.2149      0.3055      1.5431  C       1  LIG       0.0000
     3  C3         0.4408     -1.1854      1.2664  C       1  LIG       0.0000
     4  C4         0.2046     -1.4638     -0.2562  C       1  LIG       0.0000
     5  C5        -0.2370     -0.0858     -0.7193  C       1  LIG       0.0000
     6  C6        -0.0397      0.8712      0.1833  C       1  LIG       0.0000
     7  C7        -0.2464      2.0931     -0.4409  C       1  LIG       0.0000
     8  N8        -0.6482      1.8965     -1.7076  N       1  LIG       0.0000
     9  N9        -0.6519      0.5395     -1.8635  N       1  LIG       0.0000
    10  H10        1.3942     -1.7379      1.2380  H       1  LIG       0.0000
    11  H11       -0.1758     -1.4202      2.1272  H       1  LIG       0.0000
    12  H12       -0.5175     -1.9422     -0.8789  H       1  LIG       0.0000
    13  H13        1.1396     -2.0408     -0.3153  H       1  LIG       0.0000
    14  H14       -0.0979      3.0824     -0.0957  H       1  LIG       0.0000
    15  H15       -0.9999      0.1991     -2.6956  H       1  LIG       0.0000
@<TRIPOS>BOND
    1     4    12  1
    2     3    10  1
    3     7    14  1
    4     7     8  ar
    5     8     9  ar
    6     6     7  ar
    7     9    15  1
    8     5     9  ar
    9     5     6  ar
   10     2     6  1
   11     1     2  2
   12     4     5  1
   13     2     3  1
   14     3     4  1
   15     4    13  1
   16     3    11  1
