
     RDKit          3D

 20 20  0  0  0  0  0  0  0  0999 V2000
   -1.5616    0.8763    2.8984 N   0  0  0  0  0  0  0  0  0  0  0  0
   -0.4723    0.6930    2.5767 C   0  0  0  0  0  0  0  0  0  0  0  0
    0.8097    0.2538    1.9685 C   0  0  0  0  0  0  0  0  0  0  0  0
    1.1446    1.1227    0.6846 C   0  0  0  0  0  0  0  0  0  0  0  0
    0.0605    1.0516   -0.3890 C   0  0  0  0  0  0  0  0  0  0  0  0
    0.0904   -0.3535   -1.1375 C   0  0  0  0  0  0  0  0  0  0  0  0
   -0.7340   -1.3766   -0.3593 C   0  0  0  0  0  0  0  0  0  0  0  0
   -1.5285   -1.7205   -1.4580 O   0  0  0  0  0  0  0  0  0  0  0  0
   -0.8179   -0.7524   -2.3570 C   0  0  0  0  0  0  0  0  0  0  0  0
    1.6137    0.4124    2.6552 H   0  0  0  0  0  0  0  0  0  0  0  0
    0.7963   -0.8236    1.6551 H   0  0  0  0  0  0  0  0  0  0  0  0
    2.1014    0.6551    0.3676 H   0  0  0  0  0  0  0  0  0  0  0  0
    1.2843    2.1592    0.9747 H   0  0  0  0  0  0  0  0  0  0  0  0
    0.3501    1.8280   -1.1388 H   0  0  0  0  0  0  0  0  0  0  0  0
   -0.9219    1.2593   -0.0508 H   0  0  0  0  0  0  0  0  0  0  0  0
    1.1602   -0.6714   -1.3365 H   0  0  0  0  0  0  0  0  0  0  0  0
   -0.1280   -2.2090   -0.0171 H   0  0  0  0  0  0  0  0  0  0  0  0
   -1.3661   -0.9551    0.4652 H   0  0  0  0  0  0  0  0  0  0  0  0
   -1.5003   -0.0740   -2.8627 H   0  0  0  0  0  0  0  0  0  0  0  0
   -0.3806   -1.3751   -3.1393 H   0  0  0  0  0  0  0  0  0  0  0  0
  7 18  1  0
  7 17  1  0
  7  8  1  0
  6  7  1  0
  8  9  1  0
  4 13  1  0
  3 10  1  0
  5 14  1  0
  1  2  3  0
  2  3  1  0
  9 19  1  0
  3  4  1  0
  4  5  1  0
  4 12  1  0
  3 11  1  0
  6  9  1  0
  9 20  1  0
  5  6  1  0
  6 16  1  0
  5 15  1  0
M  END
$$$$

     RDKit          3D

 19 20  0  0  0  0  0  0  0  0999 V2000
    0.4924    0.9675    1.9175 C   0  0  0  0  0  0  0  0  0  0  0  0
    1.0185   -0.3328    1.2876 C   0  0  0  0  0  0  0  0  0  0  0  0
    0.0474   -1.0725    0.3600 C   0  0  0  0  0  0  0  0  0  0  0  0
   -0.6077   -0.3085   -0.7426 C   0  0  0  0  0  0  0  0  0  0  0  0
   -0.4410   -0.7914   -2.1785 C   0  0  0  0  0  0  0  0  0  0  0  0
    0.0877    0.5424   -1.7545 C   0  0  0  0  0  0  0  0  0  0  0  0
   -0.8678    1.6015   -1.4568 O   0  0  0  0  0  0  0  0  0  0  0  0
   -1.4899    0.8205   -0.5335 C   0  0  0  0  0  0  0  0  0  0  0  0
   -2.4556    0.9644    0.1828 O   0  0  0  0  0  0  0  0  0  0  0  0
    0.6161    1.8237    1.2344 H   0  0  0  0  0  0  0  0  0  0  0  0
   -0.5688    0.8631    2.1685 H   0  0  0  0  0  0  0  0  0  0  0  0
    1.0223    1.1745    2.8441 H   0  0  0  0  0  0  0  0  0  0  0  0
    1.2463   -1.0339    2.1037 H   0  0  0  0  0  0  0  0  0  0  0  0
    1.9762   -0.1270    0.7687 H   0  0  0  0  0  0  0  0  0  0  0  0
    0.5791   -1.9413   -0.0529 H   0  0  0  0  0  0  0  0  0  0  0  0
   -0.7564   -1.5017    0.9827 H   0  0  0  0  0  0  0  0  0  0  0  0
   -1.3144   -0.8180   -2.8213 H   0  0  0  0  0  0  0  0  0  0  0  0
    0.2635   -1.5816   -2.3735 H   0  0  0  0  0  0  0  0  0  0  0  0
    1.1520    0.7512   -1.9365 H   0  0  0  0  0  0  0  0  0  0  0  0
  8  9  2  0
  2 14  1  0
  1 11  1  0
  1 10  1  0
  1  2  1  0
  1 12  1  0
  2 13  1  0
  2  3  1  0
  7  8  1  0
  4  8  1  0
  3 15  1  0
  6  7  1  0
  3  4  1  0
  3 16  1  0
  4  5  1  0
  4  6  1  0
  5 18  1  0
  5  6  1  0
  5 17  1  0
  6 19  1  0
M  END
$$$$

     RDKit          3D

 16 17  0  0  0  0  0  0  0  0999 V2000
    0.4630    2.0851    0.7810 O   0  0  0  0  0  0  0  0  0  0  0  0
   -0.4049    1.3405   -0.0742 C   0  0  0  0  0  0  0  0  0  0  0  0
    0.2021    1.0873   -1.4516 C   0  0  0  0  0  0  0  0  0  0  0  0
    0.0414   -0.3388   -1.7756 N   0  0  0  0  0  0  0  0  0  0  0  0
   -0.7933   -0.9271   -0.7211 C   0  0  0  0  0  0  0  0  0  0  0  0
   -0.2826   -2.1887   -0.3008 O   0  0  0  0  0  0  0  0  0  0  0  0
    0.4470   -1.9436    0.8999 C   0  0  0  0  0  0  0  0  0  0  0  0
    0.4662   -0.5532    1.2096 O   0  0  0  0  0  0  0  0  0  0  0  0
   -0.6640   -0.0420    0.4887 C   0  0  0  0  0  0  0  0  0  0  0  0
    1.0536    1.4177    1.1978 H   0  0  0  0  0  0  0  0  0  0  0  0
   -1.3508    1.8901   -0.1853 H   0  0  0  0  0  0  0  0  0  0  0  0
    1.2663    1.3789   -1.5025 H   0  0  0  0  0  0  0  0  0  0  0  0
   -0.3399    1.6781   -2.2103 H   0  0  0  0  0  0  0  0  0  0  0  0
   -0.0273   -2.4897    1.7229 H   0  0  0  0  0  0  0  0  0  0  0  0
    1.4719   -2.3202    0.7856 H   0  0  0  0  0  0  0  0  0  0  0  0
   -1.5487   -0.0745    1.1361 H   0  0  0  0  0  0  0  0  0  0  0  0
  2 11  1  0
  9 16  1  0
  8  9  1  0
  7  8  1  0
  2  9  1  0
  5  9  1  0
  7 14  1  0
  1  2  1  0
  2  3  1  0
  1 10  1  0
  7 15  1  0
  6  7  1  0
  3 12  1  0
  3 13  1  0
  3  4  1  0
  5  6  1  0
  4  5  1  0
M  END
$$$$

     RDKit          3D

 17 17  0  0  0  0  0  0  0  0999 V2000
    2.3996    0.1574    1.1812 O   0  0  0  0  0  0  0  0  0  0  0  0
    1.2838    0.1373    0.6657 C   0  0  0  0  0  0  0  0  0  0  0  0
    0.3892    1.0813    1.0762 N   0  0  0  0  0  0  0  0  0  0  0  0
   -1.0010    1.3116    0.7440 C   0  0  0  0  0  0  0  0  0  0  0  0
   -1.9188    0.4850    1.5450 C   0  0  0  0  0  0  0  0  0  0  0  0
   -2.6541   -0.1642    2.1672 N   0  0  0  0  0  0  0  0  0  0  0  0
    1.0177   -0.8939   -0.3683 C   0  0  0  0  0  0  0  0  0  0  0  0
   -0.2841   -1.3502   -0.9623 C   0  0  0  0  0  0  0  0  0  0  0  0
    0.6398   -0.4872   -1.7741 C   0  0  0  0  0  0  0  0  0  0  0  0
    0.7710    1.6315    1.8361 H   0  0  0  0  0  0  0  0  0  0  0  0
   -1.1950    2.3688    0.9549 H   0  0  0  0  0  0  0  0  0  0  0  0
   -1.1605    1.1715   -0.3258 H   0  0  0  0  0  0  0  0  0  0  0  0
    1.7608   -1.6899   -0.2981 H   0  0  0  0  0  0  0  0  0  0  0  0
   -0.3607   -2.3987   -1.2397 H   0  0  0  0  0  0  0  0  0  0  0  0
   -1.2333   -0.9533   -0.6448 H   0  0  0  0  0  0  0  0  0  0  0  0
    1.1841   -0.9484   -2.5916 H   0  0  0  0  0  0  0  0  0  0  0  0
    0.3615    0.5414   -1.9656 H   0  0  0  0  0  0  0  0  0  0  0  0
  8 15  1  0
  8 14  1  0
  8  9  1  0
  7  8  1  0
  1  2  2  0
  5  6  3  0
  9 16  1  0
  7  9  1  0
  9 17  1  0
  2  7  1  0
  2  3  1  0
  4 12  1  0
  7 13  1  0
  4  5  1  0
  3  4  1  0
  4 11  1  0
  3 10  1  0
M  END
$$$$

     RDKit          3D

 22 24  0  0  0  0  0  0  0  0999 V2000
   -1.4070   -0.0675   -1.8862 C   0  0  0  0  0  0  0  0  0  0  0  0
   -0.2613    0.6993   -1.0470 C   0  0  0  0  0  0  0  0  0  0  0  0
   -1.7423    0.6482   -0.7096 N   0  0  0  0  0  0  0  0  0  0  0  0
   -2.0499   -0.3248    0.4939 C   0  0  0  0  0  0  0  0  0  0  0  0
   -0.8921   -0.6404    1.5851 C   0  0  0  0  0  0  0  0  0  0  0  0
    0.3672    0.3214    1.3653 C   0  0  0  0  0  0  0  0  0  0  0  0
    0.8146    0.3339   -0.0372 C   0  0  0  0  0  0  0  0  0  0  0  0
    2.2245    0.8443   -0.3018 C   0  0  0  0  0  0  0  0  0  0  0  0
    2.0290   -0.6402   -0.2661 C   0  0  0  0  0  0  0  0  0  0  0  0
   -1.6257    0.3666   -2.8325 H   0  0  0  0  0  0  0  0  0  0  0  0
   -1.7370   -1.1589   -2.0681 H   0  0  0  0  0  0  0  0  0  0  0  0
    0.1278    1.5999   -1.5669 H   0  0  0  0  0  0  0  0  0  0  0  0
   -2.9746   -0.1599    1.2494 H   0  0  0  0  0  0  0  0  0  0  0  0
   -2.0877   -1.3548   -0.0154 H   0  0  0  0  0  0  0  0  0  0  0  0
   -0.5688   -1.6661    1.2531 H   0  0  0  0  0  0  0  0  0  0  0  0
   -1.3751   -0.5845    2.5874 H   0  0  0  0  0  0  0  0  0  0  0  0
    0.2315    1.4737    1.5712 H   0  0  0  0  0  0  0  0  0  0  0  0
    1.2236   -0.0127    1.9640 H   0  0  0  0  0  0  0  0  0  0  0  0
    2.3714    1.2733   -1.3091 H   0  0  0  0  0  0  0  0  0  0  0  0
    2.6643    1.3224    0.5281 H   0  0  0  0  0  0  0  0  0  0  0  0
    2.1590   -1.2471   -1.1397 H   0  0  0  0  0  0  0  0  0  0  0  0
    2.5087   -1.0260    0.5819 H   0  0  0  0  0  0  0  0  0  0  0  0
  6 17  1  0
  5 16  1  0
  6 18  1  0
  5  6  1  0
  6  7  1  0
  5 15  1  0
  4  5  1  0
  8 19  1  0
  9 22  1  0
  4 14  1  0
  7  8  1  0
  8  9  1  0
  8 20  1  0
  7  9  1  0
  2  7  1  0
  4 13  1  0
  3  4  1  0
  9 21  1  0
  1 11  1  0
  1  2  1  0
  2  3  1  0
  2 12  1  0
  1  3  1  0
  1 10  1  0
M  END
$$$$

     RDKit          3D

 17 16  0  0  0  0  0  0  0  0999 V2000
    2.7865    0.2990   -0.2368 C   0  0  0  0  0  0  0  0  0  0  0  0
    1.8139   -0.3011   -0.6146 C   0  0  0  0  0  0  0  0  0  0  0  0
    0.6230   -1.0105   -1.1084 C   0  0  0  0  0  0  0  0  0  0  0  0
   -0.4339   -1.2870   -0.0308 C   0  0  0  0  0  0  0  0  0  0  0  0
   -1.1428   -0.0665    0.5909 C   0  0  0  0  0  0  0  0  0  0  0  0
   -1.6880    0.8443   -0.4343 C   0  0  0  0  0  0  0  0  0  0  0  0
   -2.1323    1.5953   -1.2622 C   0  0  0  0  0  0  0  0  0  0  0  0
   -0.2901    0.6316    1.5749 C   0  0  0  0  0  0  0  0  0  0  0  0
    0.3941    1.1975    2.3847 C   0  0  0  0  0  0  0  0  0  0  0  0
    3.6389    0.8469    0.1004 H   0  0  0  0  0  0  0  0  0  0  0  0
    0.9470   -1.9798   -1.5188 H   0  0  0  0  0  0  0  0  0  0  0  0
    0.1827   -0.4607   -1.9503 H   0  0  0  0  0  0  0  0  0  0  0  0
    0.0139   -1.8962    0.7631 H   0  0  0  0  0  0  0  0  0  0  0  0
   -1.2011   -1.9182   -0.5041 H   0  0  0  0  0  0  0  0  0  0  0  0
   -2.0059   -0.4573    1.1522 H   0  0  0  0  0  0  0  0  0  0  0  0
   -2.5159    2.2668   -1.9997 H   0  0  0  0  0  0  0  0  0  0  0  0
    1.0100    1.6958    3.0939 H   0  0  0  0  0  0  0  0  0  0  0  0
  4 14  1  0
  5 15  1  0
  3 11  1  0
  9 17  1  0
  8  9  3  0
  5  8  1  0
  1 10  1  0
  1  2  3  0
  2  3  1  0
  3  4  1  0
  4  5  1  0
  4 13  1  0
  3 12  1  0
  5  6  1  0
  6  7  3  0
  7 16  1  0
M  END
$$$$

     RDKit          3D

 17 18  0  0  0  0  0  0  0  0999 V2000
    1.6917   -0.6664   -0.4010 C   0  0  0  0  0  0  0  0  0  0  0  0
    0.9312    0.5691   -0.2698 N   0  0  0  0  0  0  0  0  0  0  0  0
    0.1616    0.7137   -1.4788 C   0  0  0  0  0  0  0  0  0  0  0  0
   -1.0962    0.6443   -0.6548 C   0  0  0  0  0  0  0  0  0  0  0  0
   -1.6076   -0.5658   -0.0249 O   0  0  0  0  0  0  0  0  0  0  0  0
   -1.1300   -0.1741    1.2585 C   0  0  0  0  0  0  0  0  0  0  0  0
   -0.6572   -1.2953    2.1174 C   0  0  0  0  0  0  0  0  0  0  0  0
   -0.6187   -2.1624    2.8914 N   0  0  0  0  0  0  0  0  0  0  0  0
   -0.1946    0.8391    0.6364 C   0  0  0  0  0  0  0  0  0  0  0  0
    2.6099   -0.2010   -0.8371 H   0  0  0  0  0  0  0  0  0  0  0  0
    2.0856   -1.2103    0.4687 H   0  0  0  0  0  0  0  0  0  0  0  0
    1.4845   -1.4582   -1.1769 H   0  0  0  0  0  0  0  0  0  0  0  0
    0.3442    1.6393   -2.0697 H   0  0  0  0  0  0  0  0  0  0  0  0
    0.1847   -0.0485   -2.3061 H   0  0  0  0  0  0  0  0  0  0  0  0
   -1.9399    1.2498   -1.0617 H   0  0  0  0  0  0  0  0  0  0  0  0
   -1.9434    0.3123    1.7941 H   0  0  0  0  0  0  0  0  0  0  0  0
   -0.3060    1.8142    1.1141 H   0  0  0  0  0  0  0  0  0  0  0  0
  7  8  3  0
  1 11  1  0
  3 14  1  0
  6  7  1  0
  1  2  1  0
  1 10  1  0
  1 12  1  0
  2  3  1  0
  2  9  1  0
  3 13  1  0
  3  4  1  0
  5  6  1  0
  4  5  1  0
  6  9  1  0
  6 16  1  0
  4  9  1  0
  4 15  1  0
  9 17  1  0
M  END
$$$$

     RDKit          3D

 21 22  0  0  0  0  0  0  0  0999 V2000
    0.1994   -1.5879    1.1113 C   0  0  0  0  0  0  0  0  0  0  0  0
    1.3218   -0.6616    0.5635 C   0  0  0  0  0  0  0  0  0  0  0  0
    1.7193   -0.9136   -0.8794 C   0  0  0  0  0  0  0  0  0  0  0  0
    1.1656    0.3374   -1.3305 O   0  0  0  0  0  0  0  0  0  0  0  0
    0.8165    0.6670    0.0272 C   0  0  0  0  0  0  0  0  0  0  0  0
    0.3273    2.0689    0.2576 C   0  0  0  0  0  0  0  0  0  0  0  0
   -0.8010    0.7610    0.2712 C   0  0  0  0  0  0  0  0  0  0  0  0
   -1.6879    0.6029   -1.0037 C   0  0  0  0  0  0  0  0  0  0  0  0
   -1.5388    0.6089    1.4979 O   0  0  0  0  0  0  0  0  0  0  0  0
   -0.0987   -0.7314    2.2253 H   0  0  0  0  0  0  0  0  0  0  0  0
    0.6415   -2.3723    1.7185 H   0  0  0  0  0  0  0  0  0  0  0  0
   -0.9138   -2.2167    0.4831 H   0  0  0  0  0  0  0  0  0  0  0  0
    2.2249   -0.9433    1.1808 H   0  0  0  0  0  0  0  0  0  0  0  0
    1.2153   -1.7870   -1.2847 H   0  0  0  0  0  0  0  0  0  0  0  0
    2.7972   -0.8937   -1.2254 H   0  0  0  0  0  0  0  0  0  0  0  0
   -0.2480    2.3545   -0.8468 H   0  0  0  0  0  0  0  0  0  0  0  0
    0.4555    3.1084   -0.2600 H   0  0  0  0  0  0  0  0  0  0  0  0
   -1.9173   -0.4570   -1.0572 H   0  0  0  0  0  0  0  0  0  0  0  0
   -2.5259    1.3307   -0.7954 H   0  0  0  0  0  0  0  0  0  0  0  0
   -1.0807    0.8815   -1.8301 H   0  0  0  0  0  0  0  0  0  0  0  0
   -2.0725   -0.1567    1.1766 H   0  0  0  0  0  0  0  0  0  0  0  0
  3 14  1  0
  3 15  1  0
  1 11  1  0
  2  3  1  0
  3  4  1  0
  2 13  1  0
  1  2  1  0
  2  5  1  0
  1 10  1  0
  1 12  1  0
  4  5  1  0
  5  7  1  0
  5  6  1  0
  8 19  1  0
  8 18  1  0
  7  8  1  0
  7  9  1  0
  6  7  1  0
  8 20  1  0
  9 21  1  0
  6 17  1  0
  6 16  1  0
M  END
$$$$

     RDKit          3D

 19 19  0  0  0  0  0  0  0  0999 V2000
   -0.8197    1.5653   -0.9597 C   0  0  0  0  0  0  0  0  0  0  0  0
   -0.0715    0.4046   -0.2994 C   0  0  0  0  0  0  0  0  0  0  0  0
    0.3126   -0.6517   -1.3526 C   0  0  0  0  0  0  0  0  0  0  0  0
    1.0903   -1.8351   -0.8844 C   0  0  0  0  0  0  0  0  0  0  0  0
    1.2374   -2.8418   -1.5741 O   0  0  0  0  0  0  0  0  0  0  0  0
    1.1327    0.9135    0.3376 O   0  0  0  0  0  0  0  0  0  0  0  0
    0.6137    0.6473    1.6468 C   0  0  0  0  0  0  0  0  0  0  0  0
   -0.6540   -0.0142    1.0806 C   0  0  0  0  0  0  0  0  0  0  0  0
   -0.8219   -1.4295    1.3362 O   0  0  0  0  0  0  0  0  0  0  0  0
   -0.1623    2.0467   -1.7028 H   0  0  0  0  0  0  0  0  0  0  0  0
   -1.0957    2.3437   -0.2158 H   0  0  0  0  0  0  0  0  0  0  0  0
   -1.7199    1.2312   -1.5023 H   0  0  0  0  0  0  0  0  0  0  0  0
   -0.6059   -1.0001   -1.8317 H   0  0  0  0  0  0  0  0  0  0  0  0
    0.9523   -0.2016   -2.1412 H   0  0  0  0  0  0  0  0  0  0  0  0
    1.6166   -1.7567    0.0639 H   0  0  0  0  0  0  0  0  0  0  0  0
    1.2633   -0.0332    2.1961 H   0  0  0  0  0  0  0  0  0  0  0  0
    0.4342    1.5699    2.2084 H   0  0  0  0  0  0  0  0  0  0  0  0
   -1.5710    0.5084    1.3385 H   0  0  0  0  0  0  0  0  0  0  0  0
   -1.1313   -1.4667    2.2559 H   0  0  0  0  0  0  0  0  0  0  0  0
  4 15  1  0
  4  5  2  0
  3  4  1  0
  2  6  1  0
  6  7  1  0
  1 11  1  0
  3 13  1  0
  2  3  1  0
  3 14  1  0
  7 16  1  0
  1  2  1  0
  2  8  1  0
  1 10  1  0
  1 12  1  0
  7 17  1  0
  7  8  1  0
  8 18  1  0
  8  9  1  0
  9 19  1  0
M  END
$$$$

     RDKit          3D

 18 18  0  0  0  0  0  0  0  0999 V2000
    1.1670    0.4140   -1.5949 C   0  0  0  0  0  0  0  0  0  0  0  0
    0.5542   -0.1404   -0.3164 C   0  0  0  0  0  0  0  0  0  0  0  0
   -0.0951   -1.4740   -0.6341 C   0  0  0  0  0  0  0  0  0  0  0  0
    1.5403   -0.3377    0.7517 O   0  0  0  0  0  0  0  0  0  0  0  0
    0.5760    0.1630    1.7149 C   0  0  0  0  0  0  0  0  0  0  0  0
   -0.1905    0.8973    0.5890 C   0  0  0  0  0  0  0  0  0  0  0  0
   -1.6064    0.8143    0.6808 C   0  0  0  0  0  0  0  0  0  0  0  0
   -2.8080    0.7846    0.8004 C   0  0  0  0  0  0  0  0  0  0  0  0
    1.5386    1.4512   -1.4507 H   0  0  0  0  0  0  0  0  0  0  0  0
    2.0584   -0.2369   -1.9107 H   0  0  0  0  0  0  0  0  0  0  0  0
    0.4980    0.4308   -2.5006 H   0  0  0  0  0  0  0  0  0  0  0  0
    0.6885   -2.1199   -1.0212 H   0  0  0  0  0  0  0  0  0  0  0  0
   -0.9023   -1.4111   -1.3740 H   0  0  0  0  0  0  0  0  0  0  0  0
   -0.5506   -1.9501    0.2649 H   0  0  0  0  0  0  0  0  0  0  0  0
    0.1231   -0.7047    2.1835 H   0  0  0  0  0  0  0  0  0  0  0  0
    1.0930    0.7867    2.5151 H   0  0  0  0  0  0  0  0  0  0  0  0
    0.1900    1.9140    0.4857 H   0  0  0  0  0  0  0  0  0  0  0  0
   -3.8741    0.7188    0.8166 H   0  0  0  0  0  0  0  0  0  0  0  0
  3 12  1  0
  1 10  1  0
  2  4  1  0
  4  5  1  0
  3 13  1  0
  2  3  1  0
  3 14  1  0
  1  2  1  0
  1  9  1  0
  1 11  1  0
  2  6  1  0
  5 15  1  0
  5 16  1  0
  5  6  1  0
  6 17  1  0
  6  7  1  0
  7  8  3  0
  8 18  1  0
M  END
$$$$

     RDKit          3D

 16 17  0  0  0  0  0  0  0  0999 V2000
   -1.4907   -1.2226   -1.9836 O   0  0  0  0  0  0  0  0  0  0  0  0
   -0.5262   -1.2360   -1.2413 C   0  0  0  0  0  0  0  0  0  0  0  0
   -0.6487   -1.3151    0.2773 C   0  0  0  0  0  0  0  0  0  0  0  0
   -0.4869    0.1352    0.8211 C   0  0  0  0  0  0  0  0  0  0  0  0
    1.0306    0.3778    0.9528 C   0  0  0  0  0  0  0  0  0  0  0  0
    0.9636    0.5228   -0.6258 C   0  0  0  0  0  0  0  0  0  0  0  0
   -0.3671    1.2677   -0.2997 C   0  0  0  0  0  0  0  0  0  0  0  0
    0.7084   -0.6614   -1.5067 O   0  0  0  0  0  0  0  0  0  0  0  0
   -1.5448   -1.7815    0.7119 H   0  0  0  0  0  0  0  0  0  0  0  0
    0.1690   -2.0149    0.4558 H   0  0  0  0  0  0  0  0  0  0  0  0
   -1.0767    0.3326    1.7166 H   0  0  0  0  0  0  0  0  0  0  0  0
    1.1902    1.3314    1.5275 H   0  0  0  0  0  0  0  0  0  0  0  0
    1.5063   -0.4269    1.4724 H   0  0  0  0  0  0  0  0  0  0  0  0
    1.7469    1.1585   -1.1267 H   0  0  0  0  0  0  0  0  0  0  0  0
   -1.0632    1.2272   -1.1034 H   0  0  0  0  0  0  0  0  0  0  0  0
   -0.1104    2.3052   -0.0482 H   0  0  0  0  0  0  0  0  0  0  0  0
  5 13  1  0
  5 12  1  0
  5  6  1  0
  4  5  1  0
  6 14  1  0
  4 11  1  0
  6  8  1  0
  6  7  1  0
  3  4  1  0
  4  7  1  0
  3  9  1  0
  7 15  1  0
  2  8  1  0
  2  3  1  0
  3 10  1  0
  7 16  1  0
  1  2  2  0
M  END
$$$$

     RDKit          3D

 20 22  0  0  0  0  0  0  0  0999 V2000
   -1.3675    1.8720   -0.5737 C   0  0  0  0  0  0  0  0  0  0  0  0
   -0.7374    0.6032    0.0141 C   0  0  0  0  0  0  0  0  0  0  0  0
   -0.5323    0.5657    1.5356 C   0  0  0  0  0  0  0  0  0  0  0  0
    0.3334   -0.6996    1.4422 N   0  0  0  0  0  0  0  0  0  0  0  0
    1.4855   -1.3697    0.7612 C   0  0  0  0  0  0  0  0  0  0  0  0
    1.0584   -0.9572   -0.6424 C   0  0  0  0  0  0  0  0  0  0  0  0
   -0.2757   -1.3468   -1.2485 C   0  0  0  0  0  0  0  0  0  0  0  0
   -1.3106   -0.5310   -0.7104 O   0  0  0  0  0  0  0  0  0  0  0  0
    0.7991    0.3852    0.0588 C   0  0  0  0  0  0  0  0  0  0  0  0
   -2.4258    1.9487   -0.3671 H   0  0  0  0  0  0  0  0  0  0  0  0
   -1.2512    1.8846   -1.7118 H   0  0  0  0  0  0  0  0  0  0  0  0
   -0.8647    2.7598   -0.1838 H   0  0  0  0  0  0  0  0  0  0  0  0
   -1.4878    0.3221    2.0488 H   0  0  0  0  0  0  0  0  0  0  0  0
   -0.0780    1.4924    1.9449 H   0  0  0  0  0  0  0  0  0  0  0  0
    1.4903   -2.4316    0.9274 H   0  0  0  0  0  0  0  0  0  0  0  0
    2.4621   -1.0709    1.1035 H   0  0  0  0  0  0  0  0  0  0  0  0
    1.8810   -0.9543   -1.3706 H   0  0  0  0  0  0  0  0  0  0  0  0
   -0.2598   -1.1761   -2.3225 H   0  0  0  0  0  0  0  0  0  0  0  0
   -0.5059   -2.4046   -1.0652 H   0  0  0  0  0  0  0  0  0  0  0  0
    1.5868    1.1083    0.3595 H   0  0  0  0  0  0  0  0  0  0  0  0
  3 13  1  0
  3 14  1  0
  3  4  1  0
  2  3  1  0
  4  5  1  0
  4  9  1  0
  5 15  1  0
  1 11  1  0
  5 16  1  0
  5  6  1  0
  9 20  1  0
  2  9  1  0
  6  9  1  0
  1  2  1  0
  2  8  1  0
  1 10  1  0
  1 12  1  0
  6 17  1  0
  6  7  1  0
  7  8  1  0
  7 19  1  0
  7 18  1  0
M  END
$$$$

     RDKit          3D

 23 23  0  0  0  0  0  0  0  0999 V2000
   -0.3290    1.4522   -2.0694 C   0  0  0  0  0  0  0  0  0  0  0  0
   -1.3211    0.7026   -1.2088 C   0  0  0  0  0  0  0  0  0  0  0  0
   -0.8803    0.0313    0.0461 C   0  0  0  0  0  0  0  0  0  0  0  0
    0.1010   -1.1167    0.0358 C   0  0  0  0  0  0  0  0  0  0  0  0
   -0.2360   -2.4082    0.7028 C   0  0  0  0  0  0  0  0  0  0  0  0
    0.4621    0.1415    0.8300 C   0  0  0  0  0  0  0  0  0  0  0  0
    1.6882    0.8615    0.3108 C   0  0  0  0  0  0  0  0  0  0  0  0
    0.2802    0.1756    2.3270 C   0  0  0  0  0  0  0  0  0  0  0  0
    1.1920    0.5068    3.0732 O   0  0  0  0  0  0  0  0  0  0  0  0
    0.3297    2.0961   -1.4686 H   0  0  0  0  0  0  0  0  0  0  0  0
   -0.8712    2.1398   -2.7477 H   0  0  0  0  0  0  0  0  0  0  0  0
    0.2655    0.7749   -2.7117 H   0  0  0  0  0  0  0  0  0  0  0  0
   -1.8072   -0.0555   -1.8303 H   0  0  0  0  0  0  0  0  0  0  0  0
   -2.1057    1.4108   -0.9214 H   0  0  0  0  0  0  0  0  0  0  0  0
   -1.7806   -0.1559    0.6312 H   0  0  0  0  0  0  0  0  0  0  0  0
    0.6385   -1.2950   -0.8875 H   0  0  0  0  0  0  0  0  0  0  0  0
   -1.2127   -2.7797    0.3615 H   0  0  0  0  0  0  0  0  0  0  0  0
    0.5247   -3.1571    0.4583 H   0  0  0  0  0  0  0  0  0  0  0  0
   -0.2466   -2.3285    1.7941 H   0  0  0  0  0  0  0  0  0  0  0  0
    2.5821    0.4728    0.8252 H   0  0  0  0  0  0  0  0  0  0  0  0
    1.8477    0.6946   -0.7553 H   0  0  0  0  0  0  0  0  0  0  0  0
    1.6117    1.9431    0.4954 H   0  0  0  0  0  0  0  0  0  0  0  0
   -0.7329   -0.1072    2.7092 H   0  0  0  0  0  0  0  0  0  0  0  0
  5 19  1  0
  5 18  1  0
  5 17  1  0
  4  5  1  0
  1 11  1  0
  1 10  1  0
  1 12  1  0
  1  2  1  0
  4 16  1  0
  3  4  1  0
  4  6  1  0
  2 13  1  0
  2  3  1  0
  2 14  1  0
  7 20  1  0
  3 15  1  0
  3  6  1  0
  6  7  1  0
  6  8  1  0
  7 22  1  0
  7 21  1  0
  8  9  2  0
  8 23  1  0
M  END
$$$$

     RDKit          3D

 13 14  0  0  0  0  0  0  0  0999 V2000
   -2.0839    1.0800   -0.5723 N   0  0  0  0  0  0  0  0  0  0  0  0
   -1.5207    0.1883    0.4323 C   0  0  0  0  0  0  0  0  0  0  0  0
   -1.5774   -1.1910   -0.0057 O   0  0  0  0  0  0  0  0  0  0  0  0
   -0.1451   -1.2850   -0.1105 C   0  0  0  0  0  0  0  0  0  0  0  0
    0.6560   -1.0775    1.1356 C   0  0  0  0  0  0  0  0  0  0  0  0
   -0.0290    0.0864    0.4601 C   0  0  0  0  0  0  0  0  0  0  0  0
    0.8021    1.0827   -0.1521 C   0  0  0  0  0  0  0  0  0  0  0  0
    1.5031    1.9157   -0.6585 C   0  0  0  0  0  0  0  0  0  0  0  0
   -2.0333    0.6576   -1.4983 H   0  0  0  0  0  0  0  0  0  0  0  0
    0.3285   -1.5053   -1.0575 H   0  0  0  0  0  0  0  0  0  0  0  0
    0.2449   -1.4426    2.0691 H   0  0  0  0  0  0  0  0  0  0  0  0
    1.7333   -1.1688    1.0637 H   0  0  0  0  0  0  0  0  0  0  0  0
    2.1215    2.6595   -1.1059 H   0  0  0  0  0  0  0  0  0  0  0  0
  8 13  1  0
  7  8  3  0
  6  7  1  0
  4 10  1  0
  4  6  1  0
  2  6  1  0
  5  6  1  0
  3  4  1  0
  4  5  1  0
  1  2  1  0
  1  9  1  0
  2  3  1  0
  5 11  1  0
  5 12  1  0
M  END
$$$$

     RDKit          3D

 18 18  0  0  0  0  0  0  0  0999 V2000
   -2.1900   -0.0619    0.6622 C   0  0  0  0  0  0  0  0  0  0  0  0
   -0.8764    0.0584    1.2352 O   0  0  0  0  0  0  0  0  0  0  0  0
    0.1192   -0.8517    0.6819 C   0  0  0  0  0  0  0  0  0  0  0  0
    0.8855   -0.4512   -0.5575 C   0  0  0  0  0  0  0  0  0  0  0  0
    0.4818    0.7487   -1.3397 C   0  0  0  0  0  0  0  0  0  0  0  0
   -0.4996    0.4033   -2.3161 O   0  0  0  0  0  0  0  0  0  0  0  0
    1.5473   -0.3915    0.8157 C   0  0  0  0  0  0  0  0  0  0  0  0
    1.9261    0.8496    1.3698 C   0  0  0  0  0  0  0  0  0  0  0  0
    2.3737    1.8482    1.7733 N   0  0  0  0  0  0  0  0  0  0  0  0
   -2.9142   -0.1639    1.5007 H   0  0  0  0  0  0  0  0  0  0  0  0
   -2.3828    0.8629    0.1019 H   0  0  0  0  0  0  0  0  0  0  0  0
   -2.2874   -0.9429   -0.0013 H   0  0  0  0  0  0  0  0  0  0  0  0
   -0.0771   -1.9133    0.7926 H   0  0  0  0  0  0  0  0  0  0  0  0
    1.2434   -1.2611   -1.2155 H   0  0  0  0  0  0  0  0  0  0  0  0
    0.0882    1.5632   -0.7148 H   0  0  0  0  0  0  0  0  0  0  0  0
    1.3467    1.2034   -1.8761 H   0  0  0  0  0  0  0  0  0  0  0  0
   -1.0347   -0.3207   -1.9633 H   0  0  0  0  0  0  0  0  0  0  0  0
    2.2503   -1.1795    1.0509 H   0  0  0  0  0  0  0  0  0  0  0  0
  7 18  1  0
  3 13  1  0
  3  7  1  0
  7  8  1  0
  4  7  1  0
  4 14  1  0
  3  4  1  0
  2  3  1  0
  8  9  3  0
  4  5  1  0
  1 10  1  0
  1 11  1  0
  1  2  1  0
  1 12  1  0
  6 17  1  0
  5  6  1  0
  5 15  1  0
  5 16  1  0
M  END
$$$$

     RDKit          3D

 17 20  0  0  0  0  0  0  0  0999 V2000
   -1.5279    0.6463   -0.6857 C   0  0  0  0  0  0  0  0  0  0  0  0
   -1.8432    0.6142    0.8016 C   0  0  0  0  0  0  0  0  0  0  0  0
   -0.8261    0.0350    1.4896 C   0  0  0  0  0  0  0  0  0  0  0  0
    0.1936   -0.3095    0.5727 C   0  0  0  0  0  0  0  0  0  0  0  0
    1.1797   -1.3216   -0.0026 C   0  0  0  0  0  0  0  0  0  0  0  0
    2.3092   -0.3583    0.1888 N   0  0  0  0  0  0  0  0  0  0  0  0
    1.2166    0.5784   -0.2069 C   0  0  0  0  0  0  0  0  0  0  0  0
    0.7774   -0.4483   -1.2725 C   0  0  0  0  0  0  0  0  0  0  0  0
   -0.6142   -0.5142   -0.7493 N   0  0  0  0  0  0  0  0  0  0  0  0
   -2.4089    0.3616   -1.3217 H   0  0  0  0  0  0  0  0  0  0  0  0
   -1.0639    1.6455   -0.9989 H   0  0  0  0  0  0  0  0  0  0  0  0
   -2.8726    0.8205    1.2051 H   0  0  0  0  0  0  0  0  0  0  0  0
   -0.8113   -0.2037    2.5397 H   0  0  0  0  0  0  0  0  0  0  0  0
    1.2312   -2.3988   -0.0118 H   0  0  0  0  0  0  0  0  0  0  0  0
    2.6018   -0.2655    1.1782 H   0  0  0  0  0  0  0  0  0  0  0  0
    1.3488    1.6391   -0.4294 H   0  0  0  0  0  0  0  0  0  0  0  0
    1.1097   -0.5206   -2.2970 H   0  0  0  0  0  0  0  0  0  0  0  0
  1 11  1  0
  2 12  1  0
  1  9  1  0
  1  2  1  0
  1 10  1  0
  4  9  1  0
  8  9  1  0
  2  3  2  0
  5 14  1  0
  3  4  1  0
  3 13  1  0
  4  5  1  0
  4  7  1  0
  8 17  1  0
  5  8  1  0
  7  8  1  0
  5  6  1  0
  6  7  1  0
  7 16  1  0
  6 15  1  0
M  END
$$$$

     RDKit          3D

 25 26  0  0  0  0  0  0  0  0999 V2000
    1.7788    0.8502    1.7322 C   0  0  0  0  0  0  0  0  0  0  0  0
    2.0615    0.4522    0.2806 C   0  0  0  0  0  0  0  0  0  0  0  0
    0.8829    0.7776   -0.6013 C   0  0  0  0  0  0  0  0  0  0  0  0
    0.0515   -0.3095   -1.4539 C   0  0  0  0  0  0  0  0  0  0  0  0
   -0.8908    0.9227   -1.7252 C   0  0  0  0  0  0  0  0  0  0  0  0
   -0.6059    0.9711   -0.1343 C   0  0  0  0  0  0  0  0  0  0  0  0
   -0.8437   -0.6016   -0.1875 C   0  0  0  0  0  0  0  0  0  0  0  0
   -0.2980   -1.5724    0.8675 C   0  0  0  0  0  0  0  0  0  0  0  0
   -2.3380   -0.9374   -0.3340 C   0  0  0  0  0  0  0  0  0  0  0  0
    1.8023    1.9249    1.8469 H   0  0  0  0  0  0  0  0  0  0  0  0
    2.5530    0.4819    2.3895 H   0  0  0  0  0  0  0  0  0  0  0  0
    0.8010    0.5010    2.0522 H   0  0  0  0  0  0  0  0  0  0  0  0
    2.9473    1.0870   -0.0429 H   0  0  0  0  0  0  0  0  0  0  0  0
    2.3853   -0.6079    0.1620 H   0  0  0  0  0  0  0  0  0  0  0  0
    1.2909    1.5737   -1.2450 H   0  0  0  0  0  0  0  0  0  0  0  0
    0.4612   -0.9902   -2.1672 H   0  0  0  0  0  0  0  0  0  0  0  0
   -0.4891    1.7441   -2.3109 H   0  0  0  0  0  0  0  0  0  0  0  0
   -1.9110    0.6929   -2.0879 H   0  0  0  0  0  0  0  0  0  0  0  0
   -0.9746    1.7173    0.5444 H   0  0  0  0  0  0  0  0  0  0  0  0
    0.7750   -1.5809    0.9855 H   0  0  0  0  0  0  0  0  0  0  0  0
   -0.7480   -1.3850    1.8816 H   0  0  0  0  0  0  0  0  0  0  0  0
   -0.5247   -2.6161    0.5897 H   0  0  0  0  0  0  0  0  0  0  0  0
   -2.6159   -1.7726    0.2808 H   0  0  0  0  0  0  0  0  0  0  0  0
   -2.9643   -0.1029    0.0205 H   0  0  0  0  0  0  0  0  0  0  0  0
   -2.5866   -1.2200   -1.3434 H   0  0  0  0  0  0  0  0  0  0  0  0
  9 24  1  0
  9 25  1  0
  4 16  1  0
  5 17  1  0
  9 23  1  0
  7  9  1  0
  4  5  1  0
  4  7  1  0
  3  4  1  0
  5 18  1  0
  5  6  1  0
  8 21  1  0
  7  8  1  0
  6  7  1  0
  1 11  1  0
  8 22  1  0
  8 20  1  0
  3  6  1  0
  6 19  1  0
  2  3  1  0
  3 15  1  0
  2 13  1  0
  1  2  1  0
  1 10  1  0
  1 12  1  0
  2 14  1  0
M  END
$$$$

     RDKit          3D

 19 21  0  0  0  0  0  0  0  0999 V2000
   -2.1371   -0.0239   -0.2415 C   0  0  0  0  0  0  0  0  0  0  0  0
   -0.5054    0.1088   -0.1419 C   0  0  0  0  0  0  0  0  0  0  0  0
    0.8401   -0.3401    1.2332 C   0  0  0  0  0  0  0  0  0  0  0  0
    1.6951   -1.2140    0.8310 C   0  0  0  0  0  0  0  0  0  0  0  0
    0.5450   -0.8452    0.1345 C   0  0  0  0  0  0  0  0  0  0  0  0
   -0.2600   -2.1597    0.2413 O   0  0  0  0  0  0  0  0  0  0  0  0
    0.7582   -0.1165   -1.2901 C   0  0  0  0  0  0  0  0  0  0  0  0
    1.1761    1.3473   -0.6551 C   0  0  0  0  0  0  0  0  0  0  0  0
    0.2624    1.1235    0.4814 C   0  0  0  0  0  0  0  0  0  0  0  0
   -2.3599    1.0652   -0.4179 H   0  0  0  0  0  0  0  0  0  0  0  0
   -2.4126   -0.8773   -1.0724 H   0  0  0  0  0  0  0  0  0  0  0  0
   -2.5486   -0.1905    0.9329 H   0  0  0  0  0  0  0  0  0  0  0  0
    0.8457    0.4113    2.2537 H   0  0  0  0  0  0  0  0  0  0  0  0
    2.5447   -1.7632    1.2551 H   0  0  0  0  0  0  0  0  0  0  0  0
   -1.1613   -1.9597   -0.1597 H   0  0  0  0  0  0  0  0  0  0  0  0
    0.1262    0.0325   -2.3572 H   0  0  0  0  0  0  0  0  0  0  0  0
    1.8269    1.8476    0.1711 H   0  0  0  0  0  0  0  0  0  0  0  0
    1.2225    1.6377   -1.7508 H   0  0  0  0  0  0  0  0  0  0  0  0
   -0.4582    1.9161    0.5524 H   0  0  0  0  0  0  0  0  0  0  0  0
  3 13  1  0
  4 14  1  0
  3  4  2  0
  2  3  1  0
  4  5  1  0
  1 11  1  0
  1 10  1  0
  1  2  1  0
  1 12  1  0
  2  9  1  0
  2  7  1  0
  9 19  1  0
  5  9  1  0
  5  6  1  0
  5  7  1  0
  8  9  1  0
  6 15  1  0
  7 16  1  0
  7  8  1  0
  8 18  1  0
  8 17  1  0
M  END
$$$$

     RDKit          3D

 19 21  0  0  0  0  0  0  0  0999 V2000
    0.1466    0.9915    2.1168 C   0  0  0  0  0  0  0  0  0  0  0  0
    0.1479    0.5555    0.6785 C   0  0  0  0  0  0  0  0  0  0  0  0
   -1.0619    0.9767   -0.1854 C   0  0  0  0  0  0  0  0  0  0  0  0
   -1.0030    0.0366   -1.4314 C   0  0  0  0  0  0  0  0  0  0  0  0
    0.0625   -0.9706   -1.1093 C   0  0  0  0  0  0  0  0  0  0  0  0
   -0.0356   -2.2695   -1.6789 O   0  0  0  0  0  0  0  0  0  0  0  0
    1.4015   -0.4063   -0.6823 C   0  0  0  0  0  0  0  0  0  0  0  0
    1.3962    0.8797   -0.0052 O   0  0  0  0  0  0  0  0  0  0  0  0
    0.4055   -0.8498    0.3226 C   0  0  0  0  0  0  0  0  0  0  0  0
    0.0596    2.0800    2.1950 H   0  0  0  0  0  0  0  0  0  0  0  0
    1.0688    0.6915    2.6297 H   0  0  0  0  0  0  0  0  0  0  0  0
   -0.6964    0.5525    2.6620 H   0  0  0  0  0  0  0  0  0  0  0  0
   -1.9992    0.7975    0.3543 H   0  0  0  0  0  0  0  0  0  0  0  0
   -1.0214    2.0342   -0.4712 H   0  0  0  0  0  0  0  0  0  0  0  0
   -0.7316    0.6047   -2.3295 H   0  0  0  0  0  0  0  0  0  0  0  0
   -1.9801   -0.4298   -1.6049 H   0  0  0  0  0  0  0  0  0  0  0  0
    0.8264   -2.7182   -1.7249 H   0  0  0  0  0  0  0  0  0  0  0  0
    2.3166   -0.9707   -0.7792 H   0  0  0  0  0  0  0  0  0  0  0  0
    0.6976   -1.5855    1.0432 H   0  0  0  0  0  0  0  0  0  0  0  0
  4 15  1  0
  3 13  1  0
  3  4  1  0
  3 14  1  0
  2  3  1  0
  4 16  1  0
  4  5  1  0
  1 11  1  0
  5  6  1  0
  6 17  1  0
  5  9  1  0
  5  7  1  0
  9 19  1  0
  2  9  1  0
  7  9  1  0
  1  2  1  0
  2  8  1  0
  1 10  1  0
  1 12  1  0
  7  8  1  0
  7 18  1  0
M  END
$$$$

     RDKit          3D

 16 16  0  0  0  0  0  0  0  0999 V2000
    2.3923   -0.8510    0.7174 C   0  0  0  0  0  0  0  0  0  0  0  0
    1.0486   -0.3743    0.3166 C   0  0  0  0  0  0  0  0  0  0  0  0
    0.3456   -0.7913   -0.7144 N   0  0  0  0  0  0  0  0  0  0  0  0
   -0.8237   -0.0639   -0.6926 C   0  0  0  0  0  0  0  0  0  0  0  0
   -1.8660   -0.2759   -1.7194 C   0  0  0  0  0  0  0  0  0  0  0  0
   -0.8302    0.8071    0.3776 C   0  0  0  0  0  0  0  0  0  0  0  0
   -1.7349    1.6843    0.7931 O   0  0  0  0  0  0  0  0  0  0  0  0
    0.3692    0.5991    1.0070 N   0  0  0  0  0  0  0  0  0  0  0  0
    2.4197   -1.9466    0.7120 H   0  0  0  0  0  0  0  0  0  0  0  0
    3.1483   -0.4833    0.0146 H   0  0  0  0  0  0  0  0  0  0  0  0
    2.6589   -0.5076    1.7238 H   0  0  0  0  0  0  0  0  0  0  0  0
   -2.6534   -0.9304   -1.3303 H   0  0  0  0  0  0  0  0  0  0  0  0
   -2.3202    0.6748   -2.0169 H   0  0  0  0  0  0  0  0  0  0  0  0
   -1.4423   -0.7438   -2.6149 H   0  0  0  0  0  0  0  0  0  0  0  0
   -1.4199    2.1340    1.5944 H   0  0  0  0  0  0  0  0  0  0  0  0
    0.7081    1.0689    1.8322 H   0  0  0  0  0  0  0  0  0  0  0  0
  5 14  1  0
  5 13  1  0
  5 12  1  0
  4  5  1  0
  3  4  1  0
  2  3  2  0
  1 10  1  0
  4  6  2  0
  1  2  1  0
  2  8  1  0
  1  9  1  0
  1 11  1  0
  6  8  1  0
  6  7  1  0
  8 16  1  0
  7 15  1  0
M  END
$$$$

     RDKit          3D

 20 19  0  0  0  0  0  0  0  0999 V2000
    0.7385    2.0656   -1.2352 C   0  0  0  0  0  0  0  0  0  0  0  0
    0.7111    1.8825    0.2000 N   0  0  0  0  0  0  0  0  0  0  0  0
    0.3979    0.7285    0.8637 C   0  0  0  0  0  0  0  0  0  0  0  0
    0.8891    0.5500    1.9771 O   0  0  0  0  0  0  0  0  0  0  0  0
   -0.5119   -0.1276    0.2788 N   0  0  0  0  0  0  0  0  0  0  0  0
   -1.7583    0.4108   -0.2527 C   0  0  0  0  0  0  0  0  0  0  0  0
   -0.3334   -1.4970    0.2556 C   0  0  0  0  0  0  0  0  0  0  0  0
    0.9490   -2.1065    0.7724 C   0  0  0  0  0  0  0  0  0  0  0  0
   -1.2655   -2.2614   -0.2149 N   0  0  0  0  0  0  0  0  0  0  0  0
    1.7796    2.2045   -1.5381 H   0  0  0  0  0  0  0  0  0  0  0  0
    0.3343    1.2060   -1.7741 H   0  0  0  0  0  0  0  0  0  0  0  0
    0.1683    2.9646   -1.4753 H   0  0  0  0  0  0  0  0  0  0  0  0
    1.3535    2.4499    0.7447 H   0  0  0  0  0  0  0  0  0  0  0  0
   -2.6068   -0.0744    0.2447 H   0  0  0  0  0  0  0  0  0  0  0  0
   -1.8081    0.1940   -1.3254 H   0  0  0  0  0  0  0  0  0  0  0  0
   -1.8410    1.4913   -0.0869 H   0  0  0  0  0  0  0  0  0  0  0  0
    1.2107   -2.9776    0.1577 H   0  0  0  0  0  0  0  0  0  0  0  0
    0.7826   -2.4419    1.8060 H   0  0  0  0  0  0  0  0  0  0  0  0
    1.8003   -1.4137    0.7510 H   0  0  0  0  0  0  0  0  0  0  0  0
   -0.9900   -3.2475   -0.1490 H   0  0  0  0  0  0  0  0  0  0  0  0
  8 17  1  0
  1 10  1  0
  8 18  1  0
  8 19  1  0
  7  8  1  0
  3  4  2  0
  1 11  1  0
  1 12  1  0
  1  2  1  0
  2  3  1  0
  3  5  1  0
  2 13  1  0
  5  7  1  0
  7  9  2  3
  5  6  1  0
  9 20  1  0
  6 16  1  0
  6 14  1  0
  6 15  1  0
M  END
$$$$

     RDKit          3D

 18 18  0  0  0  0  0  0  0  0999 V2000
   -1.2646    1.9760    0.5225 C   0  0  0  0  0  0  0  0  0  0  0  0
   -0.7125    0.6270    1.0604 C   0  0  0  0  0  0  0  0  0  0  0  0
    0.3381    0.0286    0.1142 C   0  0  0  0  0  0  0  0  0  0  0  0
    0.0295    0.6069   -1.3588 O   0  0  0  0  0  0  0  0  0  0  0  0
    0.7287   -0.5800   -1.9196 C   0  0  0  0  0  0  0  0  0  0  0  0
    0.2504   -1.3508   -0.6117 C   0  0  0  0  0  0  0  0  0  0  0  0
    1.0881   -2.4444   -0.1921 O   0  0  0  0  0  0  0  0  0  0  0  0
    1.4765   -0.3127    1.0946 C   0  0  0  0  0  0  0  0  0  0  0  0
    2.3073   -0.6954    1.8311 N   0  0  0  0  0  0  0  0  0  0  0  0
   -1.5850    2.5355    1.4571 H   0  0  0  0  0  0  0  0  0  0  0  0
   -2.1712    1.8642   -0.1756 H   0  0  0  0  0  0  0  0  0  0  0  0
   -0.3911    2.6054    0.1047 H   0  0  0  0  0  0  0  0  0  0  0  0
   -1.6200   -0.0398    1.0920 H   0  0  0  0  0  0  0  0  0  0  0  0
   -0.2703    0.7250    2.1089 H   0  0  0  0  0  0  0  0  0  0  0  0
    0.0452   -0.8078   -2.7407 H   0  0  0  0  0  0  0  0  0  0  0  0
    1.7743   -0.3789   -2.1891 H   0  0  0  0  0  0  0  0  0  0  0  0
   -0.7820   -1.5538   -0.8800 H   0  0  0  0  0  0  0  0  0  0  0  0
    0.7584   -2.8049    0.6822 H   0  0  0  0  0  0  0  0  0  0  0  0
  8  9  3  0
  3  8  1  0
  6 17  1  0
  5 15  1  0
  5  6  1  0
  3  6  1  0
  6  7  1  0
  4  5  1  0
  5 16  1  0
  3  4  1  0
  2  3  1  0
  7 18  1  0
  1 11  1  0
  2 14  1  0
  1  2  1  0
  2 13  1  0
  1 10  1  0
  1 12  1  0
M  END
$$$$

     RDKit          3D

 14 16  0  0  0  0  0  0  0  0999 V2000
   -0.1957   -2.8250    0.4292 O   0  0  0  0  0  0  0  0  0  0  0  0
    0.3856   -1.7493    0.4546 C   0  0  0  0  0  0  0  0  0  0  0  0
    1.7242   -1.5386    0.1470 N   0  0  0  0  0  0  0  0  0  0  0  0
    2.0501   -0.1768    0.0518 N   0  0  0  0  0  0  0  0  0  0  0  0
    0.8970    0.5063    0.6800 C   0  0  0  0  0  0  0  0  0  0  0  0
    0.0582    1.3336   -0.2733 C   0  0  0  0  0  0  0  0  0  0  0  0
   -1.4672    1.4947   -0.2270 C   0  0  0  0  0  0  0  0  0  0  0  0
   -0.9216    0.1473   -0.2933 C   0  0  0  0  0  0  0  0  0  0  0  0
   -0.1795   -0.4990    0.7379 N   0  0  0  0  0  0  0  0  0  0  0  0
    2.2817   -2.2713   -0.2582 H   0  0  0  0  0  0  0  0  0  0  0  0
    0.3060    2.2966    0.1778 H   0  0  0  0  0  0  0  0  0  0  0  0
   -1.9469    1.7979    0.7070 H   0  0  0  0  0  0  0  0  0  0  0  0
   -1.9666    1.8867   -1.1035 H   0  0  0  0  0  0  0  0  0  0  0  0
   -1.0253   -0.4031   -1.2300 H   0  0  0  0  0  0  0  0  0  0  0  0
  3 10  1  0
  2  9  1  0
  5  9  1  0
  8  9  1  0
  2  3  1  0
  3  4  1  0
  1  2  2  0
  8 14  1  0
  4  5  1  0
  5  6  1  0
  6 11  1  0
  6  8  1  0
  7  8  1  0
  6  7  1  0
  7 12  1  0
  7 13  1  0
M  END
$$$$

     RDKit          3D

 20 21  0  0  0  0  0  0  0  0999 V2000
    1.2534    2.6885   -0.8537 C   0  0  0  0  0  0  0  0  0  0  0  0
    0.0294    1.8099   -0.6357 C   0  0  0  0  0  0  0  0  0  0  0  0
    0.4539    0.4189   -0.4756 N   0  0  0  0  0  0  0  0  0  0  0  0
   -0.6747   -0.4951   -0.4775 C   0  0  0  0  0  0  0  0  0  0  0  0
    0.0547   -0.1843    0.7855 C   0  0  0  0  0  0  0  0  0  0  0  0
    0.2532   -1.6335    1.0622 C   0  0  0  0  0  0  0  0  0  0  0  0
   -0.3528   -2.1374    2.2692 O   0  0  0  0  0  0  0  0  0  0  0  0
   -0.4625   -1.9555   -0.2975 C   0  0  0  0  0  0  0  0  0  0  0  0
   -1.6443   -2.7853   -0.2457 O   0  0  0  0  0  0  0  0  0  0  0  0
    1.9136    2.2894   -1.6396 H   0  0  0  0  0  0  0  0  0  0  0  0
    0.9377    3.6940   -1.1712 H   0  0  0  0  0  0  0  0  0  0  0  0
    1.8424    2.7973    0.0682 H   0  0  0  0  0  0  0  0  0  0  0  0
   -0.5272    2.1948    0.2272 H   0  0  0  0  0  0  0  0  0  0  0  0
   -0.6186    1.9075   -1.5169 H   0  0  0  0  0  0  0  0  0  0  0  0
   -1.7009   -0.1691   -0.5490 H   0  0  0  0  0  0  0  0  0  0  0  0
   -0.4760    0.3481    1.5657 H   0  0  0  0  0  0  0  0  0  0  0  0
    1.3131   -1.9215    1.0439 H   0  0  0  0  0  0  0  0  0  0  0  0
    0.2530   -1.8711    2.9829 H   0  0  0  0  0  0  0  0  0  0  0  0
    0.2402   -2.3562   -1.0391 H   0  0  0  0  0  0  0  0  0  0  0  0
   -2.0875   -2.6392   -1.1034 H   0  0  0  0  0  0  0  0  0  0  0  0
  9 20  1  0
  8  9  1  0
  8 19  1  0
  4  8  1  0
  6  8  1  0
  4 15  1  0
  1 11  1  0
  3  4  1  0
  4  5  1  0
  7 18  1  0
  6  7  1  0
  6 17  1  0
  5  6  1  0
  1 10  1  0
  1 12  1  0
  1  2  1  0
  2 13  1  0
  3  5  1  0
  2  3  1  0
  5 16  1  0
  2 14  1  0
M  END
$$$$

     RDKit          3D

 22 23  0  0  0  0  0  0  0  0999 V2000
   -1.8595   -1.7190   -0.8275 C   0  0  0  0  0  0  0  0  0  0  0  0
   -1.0452   -0.5179   -0.2465 C   0  0  0  0  0  0  0  0  0  0  0  0
   -1.1306    0.9086   -0.7400 C   0  0  0  0  0  0  0  0  0  0  0  0
   -1.7250    2.3367   -0.0188 O   0  0  0  0  0  0  0  0  0  0  0  0
    0.2439    1.4811   -0.2380 C   0  0  0  0  0  0  0  0  0  0  0  0
    1.2610    0.1926   -0.2253 C   0  0  0  0  0  0  0  0  0  0  0  0
    2.3331    0.6387    0.8557 C   0  0  0  0  0  0  0  0  0  0  0  0
    1.1285   -1.4908    0.0673 C   0  0  0  0  0  0  0  0  0  0  0  0
    0.2621   -0.7545   -0.6833 N   0  0  0  0  0  0  0  0  0  0  0  0
   -2.6899   -2.0376   -0.1756 H   0  0  0  0  0  0  0  0  0  0  0  0
   -1.2563   -2.6110   -0.9897 H   0  0  0  0  0  0  0  0  0  0  0  0
   -2.1289   -1.5146   -1.8656 H   0  0  0  0  0  0  0  0  0  0  0  0
   -1.4585   -0.6817    0.8644 H   0  0  0  0  0  0  0  0  0  0  0  0
   -2.2665    0.9602   -0.8787 H   0  0  0  0  0  0  0  0  0  0  0  0
   -1.2768    2.4430    0.8820 H   0  0  0  0  0  0  0  0  0  0  0  0
    0.5328    2.4283   -0.7761 H   0  0  0  0  0  0  0  0  0  0  0  0
    0.3014    1.4540    0.8528 H   0  0  0  0  0  0  0  0  0  0  0  0
    2.8937   -0.2162    1.2026 H   0  0  0  0  0  0  0  0  0  0  0  0
    2.9509    1.5259    0.5545 H   0  0  0  0  0  0  0  0  0  0  0  0
    1.7244    0.9121    1.7385 H   0  0  0  0  0  0  0  0  0  0  0  0
    1.8046   -2.0975   -0.5392 H   0  0  0  0  0  0  0  0  0  0  0  0
    1.4007   -1.6404    1.1865 H   0  0  0  0  0  0  0  0  0  0  0  0
  4 15  1  0
  3 14  1  0
  3  4  1  0
  3  5  1  0
  2  3  1  0
  5 17  1  0
  5 16  1  0
  1 11  1  0
  5  6  1  0
  1 10  1  0
  2 13  1  0
  1  2  1  0
  2  9  1  0
  1 12  1  0
  8 22  1  0
  6  8  1  0
  6  9  1  0
  6  7  1  0
  8  9  1  0
  8 21  1  0
  7 18  1  0
  7 20  1  0
  7 19  1  0
M  END
$$$$

     RDKit          3D

 15 14  0  0  0  0  0  0  0  0999 V2000
    1.4578    1.0331   -0.2213 C   0  0  0  0  0  0  0  0  0  0  0  0
    0.8049    0.5220    1.0338 C   0  0  0  0  0  0  0  0  0  0  0  0
    1.4604    0.1828    2.0158 O   0  0  0  0  0  0  0  0  0  0  0  0
   -0.5641    0.5784    1.0780 N   0  0  0  0  0  0  0  0  0  0  0  0
   -1.3407   -0.4331    0.5639 C   0  0  0  0  0  0  0  0  0  0  0  0
   -2.1899   -0.9554    1.2923 O   0  0  0  0  0  0  0  0  0  0  0  0
   -1.1598   -0.8546   -0.8967 C   0  0  0  0  0  0  0  0  0  0  0  0
   -0.0341   -1.6624   -1.1592 O   0  0  0  0  0  0  0  0  0  0  0  0
    2.1687    0.2897   -0.5927 H   0  0  0  0  0  0  0  0  0  0  0  0
    1.9947    1.9579    0.0221 H   0  0  0  0  0  0  0  0  0  0  0  0
    0.7277    1.2661   -0.9987 H   0  0  0  0  0  0  0  0  0  0  0  0
   -0.8217    0.5720    2.0623 H   0  0  0  0  0  0  0  0  0  0  0  0
   -2.0487   -1.4276   -1.1833 H   0  0  0  0  0  0  0  0  0  0  0  0
   -1.1423    0.0323   -1.5363 H   0  0  0  0  0  0  0  0  0  0  0  0
    0.6870   -1.1012   -1.4800 H   0  0  0  0  0  0  0  0  0  0  0  0
  1 10  1  0
  7 14  1  0
  5  6  2  0
  2  3  2  0
  7  8  1  0
  8 15  1  0
  4  5  1  0
  5  7  1  0
  2  4  1  0
  1  2  1  0
  1  9  1  0
  4 12  1  0
  1 11  1  0
  7 13  1  0
M  END
$$$$

     RDKit          3D

 23 24  0  0  0  0  0  0  0  0999 V2000
    1.3105    0.3666   -2.0425 C   0  0  0  0  0  0  0  0  0  0  0  0
    1.0651   -0.9001   -1.2805 C   0  0  0  0  0  0  0  0  0  0  0  0
    1.4220   -0.8410    0.2227 C   0  0  0  0  0  0  0  0  0  0  0  0
   -0.0798   -0.7520    0.5299 C   0  0  0  0  0  0  0  0  0  0  0  0
   -0.3613   -1.2989   -0.8853 C   0  0  0  0  0  0  0  0  0  0  0  0
   -0.7444    0.5298    1.0188 C   0  0  0  0  0  0  0  0  0  0  0  0
   -1.4029    0.4534    2.3810 C   0  0  0  0  0  0  0  0  0  0  0  0
   -1.1402    1.6591    0.0999 C   0  0  0  0  0  0  0  0  0  0  0  0
    0.0816    1.7153    0.8526 O   0  0  0  0  0  0  0  0  0  0  0  0
    0.9541    1.2843   -1.5909 H   0  0  0  0  0  0  0  0  0  0  0  0
    0.8102    0.3021   -2.9994 H   0  0  0  0  0  0  0  0  0  0  0  0
    2.3740    0.5491   -2.1907 H   0  0  0  0  0  0  0  0  0  0  0  0
    1.6681   -1.6791   -1.7801 H   0  0  0  0  0  0  0  0  0  0  0  0
    2.0157    0.0053    0.5891 H   0  0  0  0  0  0  0  0  0  0  0  0
    1.9058   -1.7749    0.5576 H   0  0  0  0  0  0  0  0  0  0  0  0
   -0.2631   -1.5540    1.3029 H   0  0  0  0  0  0  0  0  0  0  0  0
   -1.2650   -0.8368   -1.4085 H   0  0  0  0  0  0  0  0  0  0  0  0
   -0.4874   -2.3869   -0.9096 H   0  0  0  0  0  0  0  0  0  0  0  0
   -0.7075    0.1499    3.1549 H   0  0  0  0  0  0  0  0  0  0  0  0
   -1.8499    1.3962    2.6673 H   0  0  0  0  0  0  0  0  0  0  0  0
   -2.2484   -0.2780    2.3030 H   0  0  0  0  0  0  0  0  0  0  0  0
   -1.1007    1.5735   -0.9937 H   0  0  0  0  0  0  0  0  0  0  0  0
   -1.9561    2.3171    0.4014 H   0  0  0  0  0  0  0  0  0  0  0  0
  3 15  1  0
  7 21  1  0
  7 19  1  0
  1 11  1  0
  3 14  1  0
  7 20  1  0
  6  7  1  0
  3  4  1  0
  2  3  1  0
  1 10  1  0
  1  2  1  0
  1 12  1  0
  4 16  1  0
  4  6  1  0
  4  5  1  0
  2 13  1  0
  2  5  1  0
  6  9  1  0
  6  8  1  0
  8  9  1  0
  5 18  1  0
  5 17  1  0
  8 22  1  0
  8 23  1  0
M  END
$$$$

     RDKit          3D

 18 19  0  0  0  0  0  0  0  0999 V2000
   -1.7040   -1.4682   -1.7115 O   0  0  0  0  0  0  0  0  0  0  0  0
   -0.6821   -0.4855   -1.8527 C   0  0  0  0  0  0  0  0  0  0  0  0
    0.4397   -0.7148   -0.8446 C   0  0  0  0  0  0  0  0  0  0  0  0
   -0.0537   -0.6888    0.5924 C   0  0  0  0  0  0  0  0  0  0  0  0
   -0.6514    0.5560    1.1043 N   0  0  0  0  0  0  0  0  0  0  0  0
   -0.0308    1.7801    0.7947 C   0  0  0  0  0  0  0  0  0  0  0  0
    0.5295    0.8925    1.9328 C   0  0  0  0  0  0  0  0  0  0  0  0
    1.0114   -0.4853    1.6674 C   0  0  0  0  0  0  0  0  0  0  0  0
    1.9682   -1.0373    2.1665 O   0  0  0  0  0  0  0  0  0  0  0  0
   -2.3024   -1.1606   -1.0028 H   0  0  0  0  0  0  0  0  0  0  0  0
   -0.2820   -0.5760   -2.8711 H   0  0  0  0  0  0  0  0  0  0  0  0
   -1.1358    0.5126   -1.7701 H   0  0  0  0  0  0  0  0  0  0  0  0
    0.8899   -1.6942   -1.0506 H   0  0  0  0  0  0  0  0  0  0  0  0
    1.2276    0.0162   -1.0302 H   0  0  0  0  0  0  0  0  0  0  0  0
   -0.6841   -1.5633    0.8080 H   0  0  0  0  0  0  0  0  0  0  0  0
    0.5692    1.9246   -0.0950 H   0  0  0  0  0  0  0  0  0  0  0  0
   -0.5569    2.6867    1.1082 H   0  0  0  0  0  0  0  0  0  0  0  0
    1.4478    1.5055    2.0544 H   0  0  0  0  0  0  0  0  0  0  0  0
  2 11  1  0
  3 14  1  0
  4 15  1  0
  1 10  1  0
  1  2  1  0
  8  9  2  0
  2  3  1  0
  2 12  1  0
  3  4  1  0
  3 13  1  0
  4  8  1  0
  4  5  1  0
  7  8  1  0
  5  7  1  0
  5  6  1  0
  7 18  1  0
  6  7  1  0
  6 17  1  0
  6 16  1  0
M  END
$$$$

     RDKit          3D

 19 20  0  0  0  0  0  0  0  0999 V2000
    1.1903    1.8212   -0.7367 C   0  0  0  0  0  0  0  0  0  0  0  0
    0.3030    0.6283   -0.8232 C   0  0  0  0  0  0  0  0  0  0  0  0
   -0.5804    0.5840    0.4847 C   0  0  0  0  0  0  0  0  0  0  0  0
    0.0627    1.0607    1.7403 O   0  0  0  0  0  0  0  0  0  0  0  0
   -0.8024   -0.9521    0.1596 C   0  0  0  0  0  0  0  0  0  0  0  0
   -1.9510   -1.2542   -0.5964 O   0  0  0  0  0  0  0  0  0  0  0  0
    0.0354   -1.8714    0.9765 C   0  0  0  0  0  0  0  0  0  0  0  0
    1.2793   -1.6476    0.2805 O   0  0  0  0  0  0  0  0  0  0  0  0
    0.5280   -0.9218   -0.7525 C   0  0  0  0  0  0  0  0  0  0  0  0
    1.6733    2.1092   -1.6765 H   0  0  0  0  0  0  0  0  0  0  0  0
    1.9973    1.7464    0.0312 H   0  0  0  0  0  0  0  0  0  0  0  0
    0.5651    2.7026   -0.5236 H   0  0  0  0  0  0  0  0  0  0  0  0
   -0.3904    0.7866   -1.6599 H   0  0  0  0  0  0  0  0  0  0  0  0
   -1.5770    1.1044    0.3504 H   0  0  0  0  0  0  0  0  0  0  0  0
   -0.5284    0.6028    2.4092 H   0  0  0  0  0  0  0  0  0  0  0  0
   -2.1452   -0.3437   -0.8961 H   0  0  0  0  0  0  0  0  0  0  0  0
   -0.4044   -2.8253    0.8475 H   0  0  0  0  0  0  0  0  0  0  0  0
    0.1367   -1.7731    2.0495 H   0  0  0  0  0  0  0  0  0  0  0  0
    0.6081   -1.5569   -1.6646 H   0  0  0  0  0  0  0  0  0  0  0  0
  4 15  1  0
  3  4  1  0
  3 14  1  0
  1 11  1  0
  2  3  1  0
  3  5  1  0
  6 16  1  0
  1  2  1  0
  1 10  1  0
  1 12  1  0
  7 18  1  0
  2 13  1  0
  2  9  1  0
  5  6  1  0
  5  7  1  0
  5  9  1  0
  7 17  1  0
  7  8  1  0
  8  9  1  0
  9 19  1  0
M  END
$$$$

     RDKit          3D

 18 17  0  0  0  0  0  0  0  0999 V2000
    1.6791   -0.1502    1.2070 C   0  0  0  0  0  0  0  0  0  0  0  0
    0.0959    0.1124    1.0710 C   0  0  0  0  0  0  0  0  0  0  0  0
   -0.5112   -0.1723   -0.2864 C   0  0  0  0  0  0  0  0  0  0  0  0
    0.4067   -0.4679   -1.5072 C   0  0  0  0  0  0  0  0  0  0  0  0
   -1.4189    1.2958   -0.4236 C   0  0  0  0  0  0  0  0  0  0  0  0
   -1.3304   -1.4028   -0.1243 C   0  0  0  0  0  0  0  0  0  0  0  0
   -1.5174   -2.5781   -0.2093 N   0  0  0  0  0  0  0  0  0  0  0  0
    2.0851    0.8492    1.7647 H   0  0  0  0  0  0  0  0  0  0  0  0
    2.2137   -0.2795    0.3618 H   0  0  0  0  0  0  0  0  0  0  0  0
    1.7867   -1.0875    1.8783 H   0  0  0  0  0  0  0  0  0  0  0  0
    0.0707    1.1491    1.4285 H   0  0  0  0  0  0  0  0  0  0  0  0
   -0.4634   -0.3637    1.8806 H   0  0  0  0  0  0  0  0  0  0  0  0
   -0.2805   -0.8034   -2.3906 H   0  0  0  0  0  0  0  0  0  0  0  0
    0.8360    0.4651   -1.9717 H   0  0  0  0  0  0  0  0  0  0  0  0
    1.1606   -1.1977   -1.3696 H   0  0  0  0  0  0  0  0  0  0  0  0
   -0.7215    2.1329   -0.4500 H   0  0  0  0  0  0  0  0  0  0  0  0
   -1.9993    1.2639   -1.3103 H   0  0  0  0  0  0  0  0  0  0  0  0
   -2.0919    1.2347    0.4510 H   0  0  0  0  0  0  0  0  0  0  0  0
  5 16  1  0
  5 17  1  0
  5 18  1  0
  3  5  1  0
  2 11  1  0
  1  9  1  0
  6  7  3  0
  1  8  1  0
  1  2  1  0
  2  3  1  0
  2 12  1  0
  3  6  1  0
  1 10  1  0
  3  4  1  0
  4 13  1  0
  4 14  1  0
  4 15  1  0
M  END
$$$$

     RDKit          3D

 18 19  0  0  0  0  0  0  0  0999 V2000
    1.7812    1.3165    1.1846 C   0  0  0  0  0  0  0  0  0  0  0  0
    0.3857    1.1248    1.3911 O   0  0  0  0  0  0  0  0  0  0  0  0
   -0.0635   -0.1955    1.0479 C   0  0  0  0  0  0  0  0  0  0  0  0
   -1.5627   -0.3203    0.9654 C   0  0  0  0  0  0  0  0  0  0  0  0
   -0.7249   -0.3944   -0.2734 C   0  0  0  0  0  0  0  0  0  0  0  0
   -0.6795   -1.5661   -1.1533 C   0  0  0  0  0  0  0  0  0  0  0  0
   -0.9529   -0.6882   -2.2674 O   0  0  0  0  0  0  0  0  0  0  0  0
   -0.8237    0.4877   -1.4468 C   0  0  0  0  0  0  0  0  0  0  0  0
    0.4083    1.1809   -1.7870 N   0  0  0  0  0  0  0  0  0  0  0  0
    2.1982    0.5910    0.4807 H   0  0  0  0  0  0  0  0  0  0  0  0
    2.3054    1.2374    2.1464 H   0  0  0  0  0  0  0  0  0  0  0  0
    1.9401    2.3240    0.7816 H   0  0  0  0  0  0  0  0  0  0  0  0
    0.4711   -1.0381    1.4821 H   0  0  0  0  0  0  0  0  0  0  0  0
   -2.1526    0.5746    1.1285 H   0  0  0  0  0  0  0  0  0  0  0  0
   -2.0166   -1.2221    1.3538 H   0  0  0  0  0  0  0  0  0  0  0  0
   -1.4768   -2.3129   -1.0291 H   0  0  0  0  0  0  0  0  0  0  0  0
    0.2855   -2.0766   -1.2536 H   0  0  0  0  0  0  0  0  0  0  0  0
    0.6778    0.9775   -2.7515 H   0  0  0  0  0  0  0  0  0  0  0  0
  9 18  1  0
  8  9  1  0
  7  8  1  0
  5  8  1  0
  6  7  1  0
  3 13  1  0
  5  6  1  0
  3  5  1  0
  4  5  1  0
  4 14  1  0
  6 17  1  0
  6 16  1  0
  3  4  1  0
  2  3  1  0
  4 15  1  0
  1 10  1  0
  1 11  1  0
  1  2  1  0
  1 12  1  0
M  END
$$$$

     RDKit          3D

 19 18  0  0  0  0  0  0  0  0999 V2000
    1.1676    2.4391   -2.5400 C   0  0  0  0  0  0  0  0  0  0  0  0
    1.0139    1.5910   -1.3561 C   0  0  0  0  0  0  0  0  0  0  0  0
    0.8960    0.9020   -0.3788 C   0  0  0  0  0  0  0  0  0  0  0  0
    0.7502    0.0607    0.8205 C   0  0  0  0  0  0  0  0  0  0  0  0
   -0.0926   -1.1987    0.5556 C   0  0  0  0  0  0  0  0  0  0  0  0
   -1.5410   -0.8798    0.1384 C   0  0  0  0  0  0  0  0  0  0  0  0
   -2.1542    0.0867    0.9888 O   0  0  0  0  0  0  0  0  0  0  0  0
   -0.0806   -2.0751    1.7490 C   0  0  0  0  0  0  0  0  0  0  0  0
   -0.0648   -2.7920    2.7138 C   0  0  0  0  0  0  0  0  0  0  0  0
    2.2230    2.5403   -2.8141 H   0  0  0  0  0  0  0  0  0  0  0  0
    0.6349    2.0114   -3.3953 H   0  0  0  0  0  0  0  0  0  0  0  0
    0.7624    3.4396   -2.3553 H   0  0  0  0  0  0  0  0  0  0  0  0
    1.7510   -0.2337    1.1606 H   0  0  0  0  0  0  0  0  0  0  0  0
    0.3148    0.6530    1.6350 H   0  0  0  0  0  0  0  0  0  0  0  0
    0.3622   -1.7702   -0.2665 H   0  0  0  0  0  0  0  0  0  0  0  0
   -1.5626   -0.4955   -0.8888 H   0  0  0  0  0  0  0  0  0  0  0  0
   -2.1660   -1.7804    0.1581 H   0  0  0  0  0  0  0  0  0  0  0  0
   -2.1607    0.9325    0.5036 H   0  0  0  0  0  0  0  0  0  0  0  0
   -0.0533   -3.4310    3.5714 H   0  0  0  0  0  0  0  0  0  0  0  0
  6 17  1  0
  6 16  1  0
  6  7  1  0
  5  6  1  0
  7 18  1  0
  4 13  1  0
  1 11  1  0
  3  4  1  0
  4  5  1  0
  4 14  1  0
  2  3  3  0
  5  8  1  0
  5 15  1  0
  1  2  1  0
  1 12  1  0
  1 10  1  0
  8  9  3  0
  9 19  1  0
M  END
$$$$

     RDKit          3D

 19 19  0  0  0  0  0  0  0  0999 V2000
    0.1228    3.5098   -0.7194 C   0  0  0  0  0  0  0  0  0  0  0  0
   -0.4481    2.4760   -0.9586 C   0  0  0  0  0  0  0  0  0  0  0  0
   -1.0526    1.1523   -1.1614 C   0  0  0  0  0  0  0  0  0  0  0  0
   -0.3730    0.1246   -0.2832 C   0  0  0  0  0  0  0  0  0  0  0  0
   -0.2143    0.2642    1.0498 C   0  0  0  0  0  0  0  0  0  0  0  0
    0.5555   -0.7057    1.8932 C   0  0  0  0  0  0  0  0  0  0  0  0
    1.2988   -1.6649    1.1248 O   0  0  0  0  0  0  0  0  0  0  0  0
    0.5109   -2.2056    0.0624 C   0  0  0  0  0  0  0  0  0  0  0  0
    0.1853   -1.1068   -0.9529 C   0  0  0  0  0  0  0  0  0  0  0  0
    0.6805    4.3716   -0.3957 H   0  0  0  0  0  0  0  0  0  0  0  0
   -2.1307    1.1765   -0.9506 H   0  0  0  0  0  0  0  0  0  0  0  0
   -0.9524    0.8704   -2.2183 H   0  0  0  0  0  0  0  0  0  0  0  0
   -0.6189    1.1345    1.5536 H   0  0  0  0  0  0  0  0  0  0  0  0
   -0.1048   -1.2392    2.5991 H   0  0  0  0  0  0  0  0  0  0  0  0
    1.2837   -0.1466    2.4986 H   0  0  0  0  0  0  0  0  0  0  0  0
    1.0929   -2.9985   -0.4216 H   0  0  0  0  0  0  0  0  0  0  0  0
   -0.4001   -2.6843    0.4611 H   0  0  0  0  0  0  0  0  0  0  0  0
    1.0930   -0.8229   -1.4979 H   0  0  0  0  0  0  0  0  0  0  0  0
   -0.5284   -1.5054   -1.6829 H   0  0  0  0  0  0  0  0  0  0  0  0
  5 13  1  0
  6 14  1  0
  6 15  1  0
  5  6  1  0
  4  5  2  0
  3 11  1  0
  6  7  1  0
  3  4  1  0
  2  3  1  0
  3 12  1  0
  4  9  1  0
  7  8  1  0
  1  2  3  0
  1 10  1  0
  8 16  1  0
  8  9  1  0
  8 17  1  0
  9 19  1  0
  9 18  1  0
M  END
$$$$

     RDKit          3D

 27 26  0  0  0  0  0  0  0  0999 V2000
   -2.1874    1.3367   -1.8916 C   0  0  0  0  0  0  0  0  0  0  0  0
   -1.0541    0.5202   -2.5041 C   0  0  0  0  0  0  0  0  0  0  0  0
   -1.2016   -0.9945   -2.2574 C   0  0  0  0  0  0  0  0  0  0  0  0
   -0.2627   -1.4926   -1.2892 O   0  0  0  0  0  0  0  0  0  0  0  0
   -0.5039   -1.0746    0.0586 C   0  0  0  0  0  0  0  0  0  0  0  0
    0.5212   -0.0007    0.4467 C   0  0  0  0  0  0  0  0  0  0  0  0
    0.9887    0.0264    1.9146 C   0  0  0  0  0  0  0  0  0  0  0  0
    1.7294   -1.2486    2.3218 C   0  0  0  0  0  0  0  0  0  0  0  0
    1.9162    1.2296    2.1246 C   0  0  0  0  0  0  0  0  0  0  0  0
   -1.8253    2.3308   -1.6025 H   0  0  0  0  0  0  0  0  0  0  0  0
   -2.9879    1.4740   -2.6247 H   0  0  0  0  0  0  0  0  0  0  0  0
   -2.6364    0.8710   -1.0181 H   0  0  0  0  0  0  0  0  0  0  0  0
   -1.0730    0.7136   -3.5869 H   0  0  0  0  0  0  0  0  0  0  0  0
   -0.0943    0.8667   -2.1269 H   0  0  0  0  0  0  0  0  0  0  0  0
   -2.2384   -1.2919   -2.0272 H   0  0  0  0  0  0  0  0  0  0  0  0
   -0.9388   -1.5182   -3.1926 H   0  0  0  0  0  0  0  0  0  0  0  0
   -0.3945   -1.9760    0.6629 H   0  0  0  0  0  0  0  0  0  0  0  0
   -1.5393   -0.7320    0.1918 H   0  0  0  0  0  0  0  0  0  0  0  0
    0.0736    0.9789    0.2126 H   0  0  0  0  0  0  0  0  0  0  0  0
    1.3970   -0.0570   -0.2199 H   0  0  0  0  0  0  0  0  0  0  0  0
    0.1035    0.1523    2.5672 H   0  0  0  0  0  0  0  0  0  0  0  0
    1.0518   -2.1019    2.3739 H   0  0  0  0  0  0  0  0  0  0  0  0
    2.5121   -1.4835    1.5917 H   0  0  0  0  0  0  0  0  0  0  0  0
    2.1842   -1.1315    3.3111 H   0  0  0  0  0  0  0  0  0  0  0  0
    1.5490    2.1343    1.6261 H   0  0  0  0  0  0  0  0  0  0  0  0
    2.9128    1.0003    1.7472 H   0  0  0  0  0  0  0  0  0  0  0  0
    1.9981    1.4682    3.1900 H   0  0  0  0  0  0  0  0  0  0  0  0
  8 23  1  0
  7 21  1  0
  9 26  1  0
  8 24  1  0
  7  8  1  0
  8 22  1  0
  7  9  1  0
  6  7  1  0
  9 25  1  0
  9 27  1  0
  5 17  1  0
  5 18  1  0
  5  6  1  0
  4  5  1  0
  6 20  1  0
  6 19  1  0
  3 15  1  0
  3  4  1  0
  3 16  1  0
  2  3  1  0
  1 11  1  0
  2 14  1  0
  1  2  1  0
  2 13  1  0
  1 10  1  0
  1 12  1  0
M  END
$$$$

     RDKit          3D

 22 22  0  0  0  0  0  0  0  0999 V2000
    2.2099    1.2296   -0.2753 C   0  0  0  0  0  0  0  0  0  0  0  0
    0.8032    0.8534   -0.3382 N   0  0  0  0  0  0  0  0  0  0  0  0
    0.3898   -0.1409   -1.2954 C   0  0  0  0  0  0  0  0  0  0  0  0
    0.2690   -1.5176   -0.6395 C   0  0  0  0  0  0  0  0  0  0  0  0
   -0.5213   -1.5167    0.6774 C   0  0  0  0  0  0  0  0  0  0  0  0
   -1.7409   -0.6123    0.6133 C   0  0  0  0  0  0  0  0  0  0  0  0
   -1.4859    0.8948    0.6658 C   0  0  0  0  0  0  0  0  0  0  0  0
   -0.0589    1.4226    0.5767 C   0  0  0  0  0  0  0  0  0  0  0  0
    0.2869    2.3620    1.3070 O   0  0  0  0  0  0  0  0  0  0  0  0
    2.3631    2.2073   -0.7544 H   0  0  0  0  0  0  0  0  0  0  0  0
    2.8275    0.4642   -0.7503 H   0  0  0  0  0  0  0  0  0  0  0  0
    2.5133    1.3058    0.7826 H   0  0  0  0  0  0  0  0  0  0  0  0
    1.1022   -0.1705   -2.1283 H   0  0  0  0  0  0  0  0  0  0  0  0
   -0.5777    0.1666   -1.7240 H   0  0  0  0  0  0  0  0  0  0  0  0
    1.2672   -1.9380   -0.4477 H   0  0  0  0  0  0  0  0  0  0  0  0
   -0.2069   -2.1922   -1.3517 H   0  0  0  0  0  0  0  0  0  0  0  0
    0.1309   -1.2398    1.5083 H   0  0  0  0  0  0  0  0  0  0  0  0
   -0.8507   -2.5510    0.8862 H   0  0  0  0  0  0  0  0  0  0  0  0
   -2.4244   -0.8676    1.4295 H   0  0  0  0  0  0  0  0  0  0  0  0
   -2.3003   -0.8163   -0.3026 H   0  0  0  0  0  0  0  0  0  0  0  0
   -1.8726    1.2485    1.6449 H   0  0  0  0  0  0  0  0  0  0  0  0
   -2.1235    1.4079   -0.0841 H   0  0  0  0  0  0  0  0  0  0  0  0
  5 18  1  0
  4 16  1  0
  6 20  1  0
  4  5  1  0
  5  6  1  0
  5 17  1  0
  4 15  1  0
  6 19  1  0
  3  4  1  0
  6  7  1  0
  1 11  1  0
  2  3  1  0
  3 14  1  0
  3 13  1  0
  7  8  1  0
  7 22  1  0
  7 21  1  0
  1  2  1  0
  2  8  1  0
  1 10  1  0
  1 12  1  0
  8  9  2  0
M  END
$$$$

     RDKit          3D

 17 17  0  0  0  0  0  0  0  0999 V2000
   -1.1618    1.4794    1.8278 N   0  0  0  0  0  0  0  0  0  0  0  0
   -0.5150    0.1161    1.5447 C   0  0  0  0  0  0  0  0  0  0  0  0
    0.0231   -0.6969    0.2613 C   0  0  0  0  0  0  0  0  0  0  0  0
   -0.9008   -0.3076   -0.9037 O   0  0  0  0  0  0  0  0  0  0  0  0
    0.1697   -0.3372   -2.0630 C   0  0  0  0  0  0  0  0  0  0  0  0
    1.1812    0.6588   -1.2922 C   0  0  0  0  0  0  0  0  0  0  0  0
    1.3228   -0.1416   -0.0446 O   0  0  0  0  0  0  0  0  0  0  0  0
   -0.1760   -2.2123    0.2604 C   0  0  0  0  0  0  0  0  0  0  0  0
   -0.8083   -3.2199    0.3262 N   0  0  0  0  0  0  0  0  0  0  0  0
   -0.7431    2.1911    1.2020 H   0  0  0  0  0  0  0  0  0  0  0  0
   -0.8927    1.7945    2.8028 H   0  0  0  0  0  0  0  0  0  0  0  0
    0.3905    0.1224    2.1740 H   0  0  0  0  0  0  0  0  0  0  0  0
   -1.1720   -0.5930    2.0485 H   0  0  0  0  0  0  0  0  0  0  0  0
   -0.1013   -0.0666   -3.0974 H   0  0  0  0  0  0  0  0  0  0  0  0
    0.6402   -1.3168   -1.9915 H   0  0  0  0  0  0  0  0  0  0  0  0
    2.1646    0.8243   -1.7427 H   0  0  0  0  0  0  0  0  0  0  0  0
    0.5791    1.7052   -1.3127 H   0  0  0  0  0  0  0  0  0  0  0  0
  2 13  1  0
  1 10  1  0
  1  2  1  0
  1 11  1  0
  2 12  1  0
  2  3  1  0
  3  8  1  0
  3  7  1  0
  3  4  1  0
  8  9  3  0
  6  7  1  0
  4  5  1  0
  6 17  1  0
  6 16  1  0
  5  6  1  0
  5 14  1  0
  5 15  1  0
M  END
$$$$

     RDKit          3D

 16 16  0  0  0  0  0  0  0  0999 V2000
    1.5659   -0.8788    0.1075 C   0  0  0  0  0  0  0  0  0  0  0  0
    0.2834   -0.2473   -0.1156 N   0  0  0  0  0  0  0  0  0  0  0  0
   -0.3038    0.7102    0.6848 C   0  0  0  0  0  0  0  0  0  0  0  0
    0.2532    1.1422    1.8377 N   0  0  0  0  0  0  0  0  0  0  0  0
   -1.4649    1.1223    0.0695 C   0  0  0  0  0  0  0  0  0  0  0  0
   -1.5910    0.3836   -1.1361 C   0  0  0  0  0  0  0  0  0  0  0  0
   -0.5095   -0.4550   -1.2364 C   0  0  0  0  0  0  0  0  0  0  0  0
   -0.2015   -1.2853   -2.2179 O   0  0  0  0  0  0  0  0  0  0  0  0
    1.4437   -1.9650    0.0094 H   0  0  0  0  0  0  0  0  0  0  0  0
    2.2730   -0.5015   -0.6379 H   0  0  0  0  0  0  0  0  0  0  0  0
    1.9263   -0.6577    1.1094 H   0  0  0  0  0  0  0  0  0  0  0  0
    0.7383    0.4700    2.4331 H   0  0  0  0  0  0  0  0  0  0  0  0
   -0.3088    1.7603    2.4180 H   0  0  0  0  0  0  0  0  0  0  0  0
   -2.1512    1.8763    0.4320 H   0  0  0  0  0  0  0  0  0  0  0  0
   -2.3863    0.4774   -1.8628 H   0  0  0  0  0  0  0  0  0  0  0  0
    0.4331   -1.9517   -1.8947 H   0  0  0  0  0  0  0  0  0  0  0  0
  4 13  1  0
  4 12  1  0
  3  4  1  0
  5 14  1  0
  3  5  2  0
  2  3  1  0
  1 10  1  0
  5  6  1  0
  1  2  1  0
  2  7  1  0
  1  9  1  0
  1 11  1  0
  6  7  2  0
  6 15  1  0
  7  8  1  0
  8 16  1  0
M  END
$$$$

     RDKit          3D

 17 17  0  0  0  0  0  0  0  0999 V2000
   -0.9439   -1.4559    1.9168 O   0  0  0  0  0  0  0  0  0  0  0  0
   -0.9782   -0.9088    0.6104 C   0  0  0  0  0  0  0  0  0  0  0  0
   -0.1499   -1.7078   -0.3886 C   0  0  0  0  0  0  0  0  0  0  0  0
    0.6983   -0.7693   -1.0888 O   0  0  0  0  0  0  0  0  0  0  0  0
    0.9633    0.2768   -0.1320 C   0  0  0  0  0  0  0  0  0  0  0  0
    1.4836    1.4489   -0.8328 C   0  0  0  0  0  0  0  0  0  0  0  0
    1.8987    2.4242   -1.4014 C   0  0  0  0  0  0  0  0  0  0  0  0
   -0.3670    0.4928    0.5929 C   0  0  0  0  0  0  0  0  0  0  0  0
   -1.2918    1.3570   -0.0969 O   0  0  0  0  0  0  0  0  0  0  0  0
   -1.7889   -1.1818    2.3395 H   0  0  0  0  0  0  0  0  0  0  0  0
   -2.0308   -0.8906    0.2846 H   0  0  0  0  0  0  0  0  0  0  0  0
    0.4823   -2.4540    0.1064 H   0  0  0  0  0  0  0  0  0  0  0  0
   -0.8044   -2.2070   -1.1145 H   0  0  0  0  0  0  0  0  0  0  0  0
    1.7242   -0.1055    0.5602 H   0  0  0  0  0  0  0  0  0  0  0  0
    2.2770    3.2683   -1.9308 H   0  0  0  0  0  0  0  0  0  0  0  0
   -0.1961    0.9196    1.5806 H   0  0  0  0  0  0  0  0  0  0  0  0
   -0.9767    1.4932   -1.0056 H   0  0  0  0  0  0  0  0  0  0  0  0
  8 16  1  0
  8  9  1  0
  9 17  1  0
  2 11  1  0
  2  8  1  0
  5  8  1  0
  1 10  1  0
  1  2  1  0
  2  3  1  0
  5 14  1  0
  4  5  1  0
  5  6  1  0
  3 12  1  0
  3  4  1  0
  3 13  1  0
  6  7  3  0
  7 15  1  0
M  END
$$$$

     RDKit          3D

 17 16  0  0  0  0  0  0  0  0999 V2000
   -2.2511    2.4797    0.2031 C   0  0  0  0  0  0  0  0  0  0  0  0
   -1.2534    1.4732    0.5670 C   0  0  0  0  0  0  0  0  0  0  0  0
   -0.4428    0.6375    0.8671 C   0  0  0  0  0  0  0  0  0  0  0  0
    0.5145   -0.3919    1.2280 C   0  0  0  0  0  0  0  0  0  0  0  0
    0.9944   -0.3837    2.3582 O   0  0  0  0  0  0  0  0  0  0  0  0
    0.9763   -1.3493    0.1598 C   0  0  0  0  0  0  0  0  0  0  0  0
    1.9879   -0.6559   -0.7510 C   0  0  0  0  0  0  0  0  0  0  0  0
   -0.1170   -1.9668   -0.6782 C   0  0  0  0  0  0  0  0  0  0  0  0
   -1.3236   -1.8939   -0.4397 O   0  0  0  0  0  0  0  0  0  0  0  0
   -2.3796    3.2142    1.0046 H   0  0  0  0  0  0  0  0  0  0  0  0
   -1.9566    3.0220   -0.7005 H   0  0  0  0  0  0  0  0  0  0  0  0
   -3.2170    2.0052    0.0099 H   0  0  0  0  0  0  0  0  0  0  0  0
    1.4809   -2.1890    0.6610 H   0  0  0  0  0  0  0  0  0  0  0  0
    2.4267   -1.3710   -1.4587 H   0  0  0  0  0  0  0  0  0  0  0  0
    2.8003   -0.2114   -0.1677 H   0  0  0  0  0  0  0  0  0  0  0  0
    1.5210    0.1511   -1.3300 H   0  0  0  0  0  0  0  0  0  0  0  0
    0.2392   -2.5702   -1.5329 H   0  0  0  0  0  0  0  0  0  0  0  0
  8  9  2  0
  1 10  1  0
  8 17  1  0
  6  8  1  0
  1 11  1  0
  1  2  1  0
  1 12  1  0
  2  3  3  0
  3  4  1  0
  6 13  1  0
  4  6  1  0
  6  7  1  0
  4  5  2  0
  7 14  1  0
  7 16  1  0
  7 15  1  0
M  END
$$$$

     RDKit          3D

 16 18  0  0  0  0  0  0  0  0999 V2000
   -2.0629   -1.1156   -0.3489 O   0  0  0  0  0  0  0  0  0  0  0  0
   -0.8241   -0.4641   -0.1233 C   0  0  0  0  0  0  0  0  0  0  0  0
   -0.4468    0.2496    1.1043 C   0  0  0  0  0  0  0  0  0  0  0  0
    1.0255   -0.0138    1.3537 C   0  0  0  0  0  0  0  0  0  0  0  0
    1.5719   -0.4852   -0.0202 C   0  0  0  0  0  0  0  0  0  0  0  0
    2.7555   -0.7410   -0.2128 O   0  0  0  0  0  0  0  0  0  0  0  0
    0.3297   -0.5137   -1.0656 C   0  0  0  0  0  0  0  0  0  0  0  0
   -0.0779    0.8705   -1.4247 N   0  0  0  0  0  0  0  0  0  0  0  0
   -0.8200    1.0307   -0.1547 C   0  0  0  0  0  0  0  0  0  0  0  0
   -2.3437   -0.9953   -1.2778 H   0  0  0  0  0  0  0  0  0  0  0  0
   -1.0901    0.2577    1.9666 H   0  0  0  0  0  0  0  0  0  0  0  0
    1.1594   -0.8132    2.0883 H   0  0  0  0  0  0  0  0  0  0  0  0
    1.5375    0.9012    1.6628 H   0  0  0  0  0  0  0  0  0  0  0  0
    0.3522   -1.2473   -1.8686 H   0  0  0  0  0  0  0  0  0  0  0  0
    0.7026    1.5265   -1.4891 H   0  0  0  0  0  0  0  0  0  0  0  0
   -1.7688    1.5531   -0.1897 H   0  0  0  0  0  0  0  0  0  0  0  0
  5  6  2  0
  4 13  1  0
  4  5  1  0
  5  7  1  0
  4 12  1  0
  3  4  1  0
  7 14  1  0
  2  7  1  0
  7  8  1  0
  2  3  1  0
  3 11  1  0
  3  9  1  0
  1  2  1  0
  2  9  1  0
  1 10  1  0
  8 15  1  0
  8  9  1  0
  9 16  1  0
M  END
$$$$

     RDKit          3D

 18 19  0  0  0  0  0  0  0  0999 V2000
   -1.5757    2.6243    0.3571 O   0  0  0  0  0  0  0  0  0  0  0  0
   -0.7061    1.7271    0.3604 C   0  0  0  0  0  0  0  0  0  0  0  0
   -0.4446    1.0053   -0.9356 C   0  0  0  0  0  0  0  0  0  0  0  0
    0.6195   -0.1040   -0.8419 C   0  0  0  0  0  0  0  0  0  0  0  0
    0.1148   -1.5115   -1.1462 C   0  0  0  0  0  0  0  0  0  0  0  0
   -0.2014   -1.6723    0.3279 C   0  0  0  0  0  0  0  0  0  0  0  0
    0.8411   -0.6306    0.5200 N   0  0  0  0  0  0  0  0  0  0  0  0
    0.7449    0.2771    1.5754 C   0  0  0  0  0  0  0  0  0  0  0  0
    0.1678    1.4889    1.5059 C   0  0  0  0  0  0  0  0  0  0  0  0
   -0.0824    1.6956   -1.8899 H   0  0  0  0  0  0  0  0  0  0  0  0
   -1.4578    0.4906   -1.1105 H   0  0  0  0  0  0  0  0  0  0  0  0
    1.6167    0.0616   -1.3339 H   0  0  0  0  0  0  0  0  0  0  0  0
   -0.5221   -1.7678   -1.9424 H   0  0  0  0  0  0  0  0  0  0  0  0
    1.0324   -1.9839   -1.4557 H   0  0  0  0  0  0  0  0  0  0  0  0
   -0.3729   -2.7457    0.5181 H   0  0  0  0  0  0  0  0  0  0  0  0
   -1.1015   -1.0837    0.6326 H   0  0  0  0  0  0  0  0  0  0  0  0
    1.2267   -0.0127    2.5476 H   0  0  0  0  0  0  0  0  0  0  0  0
    0.1007    2.1416    2.3111 H   0  0  0  0  0  0  0  0  0  0  0  0
  4 12  1  0
  5 13  1  0
  4  7  1  0
  4  5  1  0
  3  4  1  0
  3 10  1  0
  7  8  1  0
  6  7  1  0
  6 15  1  0
  1  2  2  0
  2  9  1  0
  2  3  1  0
  5  6  1  0
  5 14  1  0
  8  9  2  0
  9 18  1  0
  8 17  1  0
  3 11  1  0
  6 16  1  0
M  END
$$$$

     RDKit          3D

 17 17  0  0  0  0  0  0  0  0999 V2000
    1.5982    2.8520    0.2298 O   0  0  0  0  0  0  0  0  0  0  0  0
    0.5369    2.9759   -0.3913 C   0  0  0  0  0  0  0  0  0  0  0  0
   -0.8198    2.5719    0.1752 C   0  0  0  0  0  0  0  0  0  0  0  0
   -0.8337    1.1087    0.4040 C   0  0  0  0  0  0  0  0  0  0  0  0
   -0.5655   -0.0561    0.5127 C   0  0  0  0  0  0  0  0  0  0  0  0
    0.1197   -1.3338    0.5900 C   0  0  0  0  0  0  0  0  0  0  0  0
   -0.6376   -2.6235    0.2736 C   0  0  0  0  0  0  0  0  0  0  0  0
    0.2277   -2.9088   -0.8549 O   0  0  0  0  0  0  0  0  0  0  0  0
    0.9689   -1.6796   -0.6399 C   0  0  0  0  0  0  0  0  0  0  0  0
    0.5492    3.3459   -1.4429 H   0  0  0  0  0  0  0  0  0  0  0  0
   -0.9564    3.1321    1.1143 H   0  0  0  0  0  0  0  0  0  0  0  0
   -1.5851    2.8546   -0.5594 H   0  0  0  0  0  0  0  0  0  0  0  0
    0.7028   -1.4040    1.5080 H   0  0  0  0  0  0  0  0  0  0  0  0
   -1.6961   -2.5822   -0.0204 H   0  0  0  0  0  0  0  0  0  0  0  0
   -0.5285   -3.3911    1.0464 H   0  0  0  0  0  0  0  0  0  0  0  0
    2.0351   -1.8535   -0.4410 H   0  0  0  0  0  0  0  0  0  0  0  0
    0.8843   -1.0085   -1.5041 H   0  0  0  0  0  0  0  0  0  0  0  0
  9 17  1  0
  6 13  1  0
  8  9  1  0
  6  9  1  0
  9 16  1  0
  7  8  1  0
  7 14  1  0
  6  7  1  0
  5  6  1  0
  7 15  1  0
  4  5  3  0
  2 10  1  0
  3  4  1  0
  1  2  2  0
  2  3  1  0
  3 12  1  0
  3 11  1  0
M  END
$$$$

     RDKit          3D

 20 21  0  0  0  0  0  0  0  0999 V2000
    0.5020    1.6589   -1.2817 C   0  0  0  0  0  0  0  0  0  0  0  0
    0.0096    0.8189   -0.1522 C   0  0  0  0  0  0  0  0  0  0  0  0
   -0.3282    1.4539    1.1355 N   0  0  0  0  0  0  0  0  0  0  0  0
    0.8456    0.6171    1.0690 C   0  0  0  0  0  0  0  0  0  0  0  0
    0.6932   -0.8560    1.0077 C   0  0  0  0  0  0  0  0  0  0  0  0
    0.0013   -1.4716    2.1142 O   0  0  0  0  0  0  0  0  0  0  0  0
   -0.1164   -0.6711   -0.3409 C   0  0  0  0  0  0  0  0  0  0  0  0
   -1.5609   -1.1684   -0.3454 C   0  0  0  0  0  0  0  0  0  0  0  0
    0.5545   -1.2196   -1.5080 O   0  0  0  0  0  0  0  0  0  0  0  0
   -0.0105    1.3874   -2.2130 H   0  0  0  0  0  0  0  0  0  0  0  0
    1.5809    1.5181   -1.4356 H   0  0  0  0  0  0  0  0  0  0  0  0
    0.3150    2.7265   -1.1015 H   0  0  0  0  0  0  0  0  0  0  0  0
   -0.0736    2.4429    1.1356 H   0  0  0  0  0  0  0  0  0  0  0  0
    1.8546    1.0001    1.0932 H   0  0  0  0  0  0  0  0  0  0  0  0
    1.6483   -1.3703    0.8525 H   0  0  0  0  0  0  0  0  0  0  0  0
   -0.6344   -0.7817    2.3981 H   0  0  0  0  0  0  0  0  0  0  0  0
   -2.0686   -0.8707   -1.2675 H   0  0  0  0  0  0  0  0  0  0  0  0
   -1.5986   -2.2615   -0.2822 H   0  0  0  0  0  0  0  0  0  0  0  0
   -2.1353   -0.7691    0.4972 H   0  0  0  0  0  0  0  0  0  0  0  0
    0.5214   -2.1840   -1.3749 H   0  0  0  0  0  0  0  0  0  0  0  0
  8 18  1  0
  8 19  1  0
  9 20  1  0
  8 17  1  0
  7  8  1  0
  7  9  1  0
  5  7  1  0
  2  7  1  0
  1 11  1  0
  1 10  1  0
  5 15  1  0
  5  6  1  0
  6 16  1  0
  4  5  1  0
  1  2  1  0
  2  3  1  0
  2  4  1  0
  1 12  1  0
  3  4  1  0
  3 13  1  0
  4 14  1  0
M  END
$$$$

     RDKit          3D

 20 20  0  0  0  0  0  0  0  0999 V2000
    0.4441    1.6619    1.1635 C   0  0  0  0  0  0  0  0  0  0  0  0
    0.3642    0.6201   -0.0596 N   0  0  0  0  0  0  0  0  0  0  0  0
    1.1811   -0.5609    0.2227 C   0  0  0  0  0  0  0  0  0  0  0  0
   -0.0064   -1.3107    0.9223 C   0  0  0  0  0  0  0  0  0  0  0  0
   -1.3996   -1.4748    0.0096 C   0  0  0  0  0  0  0  0  0  0  0  0
   -1.8285   -0.2471   -0.7723 O   0  0  0  0  0  0  0  0  0  0  0  0
   -0.9670    0.1048   -1.8498 C   0  0  0  0  0  0  0  0  0  0  0  0
   -1.3872    0.0240   -3.0139 O   0  0  0  0  0  0  0  0  0  0  0  0
    0.1400    1.1216   -1.4048 C   0  0  0  0  0  0  0  0  0  0  0  0
   -0.6277    1.8062    1.6237 H   0  0  0  0  0  0  0  0  0  0  0  0
    0.7600    2.6673    1.1162 H   0  0  0  0  0  0  0  0  0  0  0  0
    1.0671    1.3504    2.0379 H   0  0  0  0  0  0  0  0  0  0  0  0
    1.9343    0.0130    0.9078 H   0  0  0  0  0  0  0  0  0  0  0  0
    2.2871   -1.3650   -0.0470 H   0  0  0  0  0  0  0  0  0  0  0  0
   -0.3944   -0.9212    1.7818 H   0  0  0  0  0  0  0  0  0  0  0  0
    0.3728   -2.3456    1.2808 H   0  0  0  0  0  0  0  0  0  0  0  0
   -2.2758   -1.6730    0.6780 H   0  0  0  0  0  0  0  0  0  0  0  0
   -1.2201   -2.2509   -0.6640 H   0  0  0  0  0  0  0  0  0  0  0  0
    0.8533    2.0980   -1.6205 H   0  0  0  0  0  0  0  0  0  0  0  0
    0.7027    0.6821   -2.3124 H   0  0  0  0  0  0  0  0  0  0  0  0
  4 15  1  0
  3 13  1  0
  3 14  1  0
  3  4  1  0
  4 16  1  0
  4  5  1  0
  2  3  1  0
  5 17  1  0
  5 18  1  0
  5  6  1  0
  1  2  1  0
  2  9  1  0
  1 11  1  0
  9 20  1  0
  6  7  1  0
  1 10  1  0
  1 12  1  0
  7  9  1  0
  9 19  1  0
  7  8  2  0
M  END
$$$$

     RDKit          3D

 20 22  0  0  0  0  0  0  0  0999 V2000
   -1.5345   -0.1604   -2.0728 C   0  0  0  0  0  0  0  0  0  0  0  0
   -0.6609   -0.6076   -0.8901 C   0  0  0  0  0  0  0  0  0  0  0  0
   -1.5540   -1.4697   -0.0756 O   0  0  0  0  0  0  0  0  0  0  0  0
   -0.0483    0.5371   -0.1176 C   0  0  0  0  0  0  0  0  0  0  0  0
   -0.7795    1.7007    0.2847 N   0  0  0  0  0  0  0  0  0  0  0  0
   -0.2476    0.9071    1.3763 C   0  0  0  0  0  0  0  0  0  0  0  0
    1.2716    0.7760    1.6067 C   0  0  0  0  0  0  0  0  0  0  0  0
    2.1850   -0.3191    1.1463 C   0  0  0  0  0  0  0  0  0  0  0  0
    1.4829    0.4433    0.1236 C   0  0  0  0  0  0  0  0  0  0  0  0
   -1.9771   -1.0730   -2.4967 H   0  0  0  0  0  0  0  0  0  0  0  0
   -2.3850    0.4171   -1.7924 H   0  0  0  0  0  0  0  0  0  0  0  0
   -0.9780    0.3715   -2.8808 H   0  0  0  0  0  0  0  0  0  0  0  0
    0.1721   -1.1710   -1.3755 H   0  0  0  0  0  0  0  0  0  0  0  0
   -0.9902   -2.1914    0.3411 H   0  0  0  0  0  0  0  0  0  0  0  0
   -1.8165    1.5421    0.2608 H   0  0  0  0  0  0  0  0  0  0  0  0
   -0.8834    0.3021    2.0048 H   0  0  0  0  0  0  0  0  0  0  0  0
    1.3854    0.3608    2.6251 H   0  0  0  0  0  0  0  0  0  0  0  0
    3.2999   -0.1371    1.1881 H   0  0  0  0  0  0  0  0  0  0  0  0
    1.9732   -1.3458    1.2744 H   0  0  0  0  0  0  0  0  0  0  0  0
    2.0850    1.1173   -0.5304 H   0  0  0  0  0  0  0  0  0  0  0  0
  5 15  1  0
  1 11  1  0
  1 12  1  0
  5  6  1  0
  4  5  1  0
  6 16  1  0
  1 10  1  0
  1  2  1  0
  4  6  1  0
  6  7  1  0
  8 19  1  0
  2  4  1  0
  4  9  1  0
  2 13  1  0
  2  3  1  0
  7  8  1  0
  7 17  1  0
  7  9  1  0
  8  9  1  0
  8 18  1  0
  9 20  1  0
  3 14  1  0
M  END
$$$$

     RDKit          3D

 16 15  0  0  0  0  0  0  0  0999 V2000
    0.7589   -1.0891    2.5646 N   0  0  0  0  0  0  0  0  0  0  0  0
    0.4527   -1.3431    1.1758 C   0  0  0  0  0  0  0  0  0  0  0  0
    1.6016   -1.1152    0.3692 O   0  0  0  0  0  0  0  0  0  0  0  0
    1.2302   -0.8806   -0.9931 C   0  0  0  0  0  0  0  0  0  0  0  0
    0.8838    0.5885   -1.2567 C   0  0  0  0  0  0  0  0  0  0  0  0
   -0.4424    0.9474   -0.7317 C   0  0  0  0  0  0  0  0  0  0  0  0
   -1.5145    1.2359   -0.2694 C   0  0  0  0  0  0  0  0  0  0  0  0
   -2.7860    1.5580    0.3330 C   0  0  0  0  0  0  0  0  0  0  0  0
   -3.1675    0.9434    1.3227 O   0  0  0  0  0  0  0  0  0  0  0  0
    1.1656   -0.1542    2.6138 H   0  0  0  0  0  0  0  0  0  0  0  0
    0.1182   -2.3795    1.0454 H   0  0  0  0  0  0  0  0  0  0  0  0
    0.4144   -1.5535   -1.2977 H   0  0  0  0  0  0  0  0  0  0  0  0
    2.1112   -1.1323   -1.5970 H   0  0  0  0  0  0  0  0  0  0  0  0
    1.6387    1.2345   -0.7992 H   0  0  0  0  0  0  0  0  0  0  0  0
    0.8987    0.7719   -2.3389 H   0  0  0  0  0  0  0  0  0  0  0  0
   -3.3636    2.3680   -0.1407 H   0  0  0  0  0  0  0  0  0  0  0  0
  4 12  1  0
  5 15  1  0
  8 16  1  0
  8  9  2  0
  7  8  1  0
  2 11  1  0
  6  7  3  0
  3  4  1  0
  4  5  1  0
  4 13  1  0
  5  6  1  0
  2  3  1  0
  1  2  1  0
  1 10  1  0
  5 14  1  0
M  END
$$$$

     RDKit          3D

 16 19  0  0  0  0  0  0  0  0999 V2000
   -2.1515    0.6187   -0.3413 O   0  0  0  0  0  0  0  0  0  0  0  0
   -0.7931    0.2344   -0.5192 C   0  0  0  0  0  0  0  0  0  0  0  0
   -0.4163   -1.2034   -0.9882 C   0  0  0  0  0  0  0  0  0  0  0  0
    0.9361   -0.9250   -0.2234 C   0  0  0  0  0  0  0  0  0  0  0  0
    1.5069    0.3931   -0.6850 N   0  0  0  0  0  0  0  0  0  0  0  0
    0.2864    1.1848   -0.8535 C   0  0  0  0  0  0  0  0  0  0  0  0
    0.8934    1.0729    0.4704 C   0  0  0  0  0  0  0  0  0  0  0  0
    0.0914   -0.0959    0.7569 C   0  0  0  0  0  0  0  0  0  0  0  0
   -0.4371   -0.5071    2.0088 O   0  0  0  0  0  0  0  0  0  0  0  0
   -2.1818    1.0080    0.5612 H   0  0  0  0  0  0  0  0  0  0  0  0
   -1.0387   -2.0033   -0.5722 H   0  0  0  0  0  0  0  0  0  0  0  0
   -0.3232   -1.3408   -2.0745 H   0  0  0  0  0  0  0  0  0  0  0  0
    1.5929   -1.7132    0.1399 H   0  0  0  0  0  0  0  0  0  0  0  0
    0.1718    2.0916   -1.4056 H   0  0  0  0  0  0  0  0  0  0  0  0
    1.5415    1.6416    1.0939 H   0  0  0  0  0  0  0  0  0  0  0  0
    0.3211   -0.4565    2.6316 H   0  0  0  0  0  0  0  0  0  0  0  0
  3 11  1  0
  3 12  1  0
  3  4  1  0
  2  3  1  0
  4 13  1  0
  9 16  1  0
  8  9  1  0
  4  8  1  0
  4  5  1  0
  2  8  1  0
  7  8  1  0
  1  2  1  0
  1 10  1  0
  2  6  1  0
  5  6  1  0
  5  7  1  0
  6  7  1  0
  6 14  1  0
  7 15  1  0
M  END
$$$$

     RDKit          3D

 17 19  0  0  0  0  0  0  0  0999 V2000
   -1.0499    1.9380    0.3817 C   0  0  0  0  0  0  0  0  0  0  0  0
   -0.0086    1.0259   -0.0910 N   0  0  0  0  0  0  0  0  0  0  0  0
    0.6872    0.3019    0.9745 C   0  0  0  0  0  0  0  0  0  0  0  0
    1.0545   -1.0625    0.4505 C   0  0  0  0  0  0  0  0  0  0  0  0
   -0.3446   -0.7546    0.8157 C   0  0  0  0  0  0  0  0  0  0  0  0
   -0.6047   -0.2754   -0.5404 C   0  0  0  0  0  0  0  0  0  0  0  0
    0.5540   -1.3163   -0.9460 C   0  0  0  0  0  0  0  0  0  0  0  0
    1.4413   -0.8976   -2.0072 C   0  0  0  0  0  0  0  0  0  0  0  0
    2.1562   -0.6134   -2.8778 N   0  0  0  0  0  0  0  0  0  0  0  0
   -1.6284    2.3144   -0.4686 H   0  0  0  0  0  0  0  0  0  0  0  0
   -1.7496    1.4809    1.0915 H   0  0  0  0  0  0  0  0  0  0  0  0
   -0.5902    2.8015    0.8733 H   0  0  0  0  0  0  0  0  0  0  0  0
    0.9221    0.6908    1.9505 H   0  0  0  0  0  0  0  0  0  0  0  0
    1.5677   -1.8481    0.9733 H   0  0  0  0  0  0  0  0  0  0  0  0
   -1.0137   -1.1474    1.5423 H   0  0  0  0  0  0  0  0  0  0  0  0
   -1.5747   -0.2979   -1.0327 H   0  0  0  0  0  0  0  0  0  0  0  0
    0.1814   -2.3402   -1.0895 H   0  0  0  0  0  0  0  0  0  0  0  0
  3 13  1  0
  4 14  1  0
  3  4  1  0
  3  5  1  0
  2  3  1  0
  4  5  1  0
  4  7  1  0
  1 11  1  0
  5 15  1  0
  5  6  1  0
  1 10  1  0
  1  2  1  0
  2  6  1  0
  1 12  1  0
  7 17  1  0
  6  7  1  0
  7  8  1  0
  6 16  1  0
  8  9  3  0
M  END
$$$$

     RDKit          3D

 13 14  0  0  0  0  0  0  0  0999 V2000
   -0.4116    2.4347    0.3297 O   0  0  0  0  0  0  0  0  0  0  0  0
   -0.3934    1.3335   -0.2272 C   0  0  0  0  0  0  0  0  0  0  0  0
    0.6070    0.8137   -1.1276 C   0  0  0  0  0  0  0  0  0  0  0  0
    1.3794   -0.3478   -0.5991 C   0  0  0  0  0  0  0  0  0  0  0  0
    0.0266   -0.5125   -1.1288 N   0  0  0  0  0  0  0  0  0  0  0  0
   -1.0714   -0.0720   -0.2359 C   0  0  0  0  0  0  0  0  0  0  0  0
   -1.0687   -0.8233    1.0470 C   0  0  0  0  0  0  0  0  0  0  0  0
   -1.0396   -1.4190    2.1441 C   0  0  0  0  0  0  0  0  0  0  0  0
    1.1507    1.4830   -1.8177 H   0  0  0  0  0  0  0  0  0  0  0  0
    1.5791   -0.2777    0.4490 H   0  0  0  0  0  0  0  0  0  0  0  0
    2.2159   -0.6555   -1.2140 H   0  0  0  0  0  0  0  0  0  0  0  0
   -2.0585   -0.0291   -0.7207 H   0  0  0  0  0  0  0  0  0  0  0  0
   -0.9155   -1.9280    3.1013 H   0  0  0  0  0  0  0  0  0  0  0  0
  6 12  1  0
  3  9  1  0
  3  5  1  0
  5  6  1  0
  4  5  1  0
  2  3  1  0
  3  4  1  0
  1  2  2  0
  2  6  1  0
  6  7  1  0
  4 10  1  0
  4 11  1  0
  7  8  3  0
  8 13  1  0
M  END
$$$$

     RDKit          3D

 18 19  0  0  0  0  0  0  0  0999 V2000
   -1.1622    0.4950    2.5781 C   0  0  0  0  0  0  0  0  0  0  0  0
   -0.5766    0.2521    1.2800 N   0  0  0  0  0  0  0  0  0  0  0  0
    0.5492    0.8805    0.7863 C   0  0  0  0  0  0  0  0  0  0  0  0
    0.7634    0.3565   -0.4578 C   0  0  0  0  0  0  0  0  0  0  0  0
    1.6722    0.4531   -1.6049 C   0  0  0  0  0  0  0  0  0  0  0  0
    1.0932   -0.4086   -2.6493 O   0  0  0  0  0  0  0  0  0  0  0  0
   -0.0320   -1.1523   -2.0613 C   0  0  0  0  0  0  0  0  0  0  0  0
   -0.2306   -0.5813   -0.7249 C   0  0  0  0  0  0  0  0  0  0  0  0
   -1.0674   -0.6469    0.3529 C   0  0  0  0  0  0  0  0  0  0  0  0
   -2.2514    0.4748    2.4888 H   0  0  0  0  0  0  0  0  0  0  0  0
   -0.8193   -0.2904    3.2556 H   0  0  0  0  0  0  0  0  0  0  0  0
   -0.8433    1.4757    2.9387 H   0  0  0  0  0  0  0  0  0  0  0  0
    1.0811    1.6242    1.3640 H   0  0  0  0  0  0  0  0  0  0  0  0
    1.7487    1.4676   -2.0041 H   0  0  0  0  0  0  0  0  0  0  0  0
    2.6705    0.0735   -1.3708 H   0  0  0  0  0  0  0  0  0  0  0  0
   -0.9038   -1.0289   -2.7073 H   0  0  0  0  0  0  0  0  0  0  0  0
    0.2567   -2.2071   -2.0195 H   0  0  0  0  0  0  0  0  0  0  0  0
   -1.9484   -1.2375    0.5555 H   0  0  0  0  0  0  0  0  0  0  0  0
  3 13  1  0
  5 15  1  0
  5 14  1  0
  4  5  1  0
  5  6  1  0
  3  4  2  0
  2  3  1  0
  1 11  1  0
  4  8  1  0
  6  7  1  0
  1  2  1  0
  2  9  1  0
  1 10  1  0
  1 12  1  0
  8  9  2  0
  7  8  1  0
  9 18  1  0
  7 16  1  0
  7 17  1  0
M  END
$$$$

     RDKit          3D

 18 20  0  0  0  0  0  0  0  0999 V2000
   -1.0984   -2.6165    0.2104 O   0  0  0  0  0  0  0  0  0  0  0  0
   -0.6146   -1.5992    0.6683 C   0  0  0  0  0  0  0  0  0  0  0  0
   -0.6726   -0.9370    2.0512 C   0  0  0  0  0  0  0  0  0  0  0  0
    0.4152   -0.0134    1.5769 N   0  0  0  0  0  0  0  0  0  0  0  0
    0.0588   -0.3421    0.1416 C   0  0  0  0  0  0  0  0  0  0  0  0
   -0.5156    0.8163   -0.6508 C   0  0  0  0  0  0  0  0  0  0  0  0
    0.9416    1.4643   -0.6970 C   0  0  0  0  0  0  0  0  0  0  0  0
    1.1827   -0.0945   -0.9370 C   0  0  0  0  0  0  0  0  0  0  0  0
   -0.0495   -0.0273   -1.9028 C   0  0  0  0  0  0  0  0  0  0  0  0
   -0.4942   -1.6252    2.9049 H   0  0  0  0  0  0  0  0  0  0  0  0
   -1.6511   -0.4172    2.2123 H   0  0  0  0  0  0  0  0  0  0  0  0
    0.3318    0.9788    1.8706 H   0  0  0  0  0  0  0  0  0  0  0  0
   -1.4352    1.3422   -0.5971 H   0  0  0  0  0  0  0  0  0  0  0  0
    0.6367    2.3925   -1.2183 H   0  0  0  0  0  0  0  0  0  0  0  0
    1.3742    1.8745    0.2378 H   0  0  0  0  0  0  0  0  0  0  0  0
    2.0541   -0.7332   -0.9643 H   0  0  0  0  0  0  0  0  0  0  0  0
   -0.6107   -0.9805   -2.0841 H   0  0  0  0  0  0  0  0  0  0  0  0
    0.1468    0.5176   -2.8226 H   0  0  0  0  0  0  0  0  0  0  0  0
  8 16  1  0
  7  8  1  0
  8  9  1  0
  5  8  1  0
  7 14  1  0
  7 15  1  0
  6  7  1  0
  3 10  1  0
  9 18  1  0
  1  2  2  0
  9 17  1  0
  6  9  1  0
  4 12  1  0
  2  5  1  0
  2  3  1  0
  4  5  1  0
  5  6  1  0
  3  4  1  0
  3 11  1  0
  6 13  1  0
M  END
$$$$

     RDKit          3D

 17 17  0  0  0  0  0  0  0  0999 V2000
    1.6582    1.2127    0.8390 C   0  0  0  0  0  0  0  0  0  0  0  0
    0.1685    1.4069    0.8716 C   0  0  0  0  0  0  0  0  0  0  0  0
   -0.3232    2.4716    1.2740 O   0  0  0  0  0  0  0  0  0  0  0  0
   -0.6896    0.3356    0.3693 C   0  0  0  0  0  0  0  0  0  0  0  0
   -2.0396    0.2371    0.6806 C   0  0  0  0  0  0  0  0  0  0  0  0
   -2.5965   -0.8216    0.0595 O   0  0  0  0  0  0  0  0  0  0  0  0
   -1.6065   -1.4505   -0.6445 C   0  0  0  0  0  0  0  0  0  0  0  0
   -0.4159   -0.7682   -0.5190 C   0  0  0  0  0  0  0  0  0  0  0  0
    0.8438   -1.0931   -1.2313 C   0  0  0  0  0  0  0  0  0  0  0  0
    1.9338    0.2678    1.3391 H   0  0  0  0  0  0  0  0  0  0  0  0
    2.1639    2.0389    1.3741 H   0  0  0  0  0  0  0  0  0  0  0  0
    1.9873    1.1986   -0.2295 H   0  0  0  0  0  0  0  0  0  0  0  0
   -2.6971    0.8126    1.2996 H   0  0  0  0  0  0  0  0  0  0  0  0
   -1.9117   -2.2863   -1.2336 H   0  0  0  0  0  0  0  0  0  0  0  0
    1.6586   -1.2931   -0.4895 H   0  0  0  0  0  0  0  0  0  0  0  0
    1.1593   -0.2906   -1.8989 H   0  0  0  0  0  0  0  0  0  0  0  0
    0.7066   -1.9784   -1.8606 H   0  0  0  0  0  0  0  0  0  0  0  0
  1 11  1  0
  9 15  1  0
  1 10  1  0
  2  3  2  0
  1  2  1  0
  1 12  1  0
  2  4  1  0
  8  9  1  0
  9 17  1  0
  9 16  1  0
  4  8  1  0
  4  5  2  0
  7  8  2  0
  5 13  1  0
  5  6  1  0
  6  7  1  0
  7 14  1  0
M  END
$$$$

     RDKit          3D

 19 21  0  0  0  0  0  0  0  0999 V2000
    1.5564    1.3839    1.3780 O   0  0  0  0  0  0  0  0  0  0  0  0
    1.1114    1.6846    0.2622 C   0  0  0  0  0  0  0  0  0  0  0  0
    0.3287    0.7672   -0.6395 C   0  0  0  0  0  0  0  0  0  0  0  0
    0.5570    0.8096   -2.1220 C   0  0  0  0  0  0  0  0  0  0  0  0
    0.4133   -0.5640   -1.3124 C   0  0  0  0  0  0  0  0  0  0  0  0
    0.3590   -0.9807    0.0724 C   0  0  0  0  0  0  0  0  0  0  0  0
   -0.6597   -1.5474    1.2683 C   0  0  0  0  0  0  0  0  0  0  0  0
   -1.1703   -0.0993    1.4000 C   0  0  0  0  0  0  0  0  0  0  0  0
   -0.8712    0.1303   -0.0513 C   0  0  0  0  0  0  0  0  0  0  0  0
    0.9455    2.8334    0.1099 H   0  0  0  0  0  0  0  0  0  0  0  0
   -0.3151    1.2682   -2.5294 H   0  0  0  0  0  0  0  0  0  0  0  0
    1.0863    0.3215   -2.9917 H   0  0  0  0  0  0  0  0  0  0  0  0
    1.3677   -1.0647   -1.6678 H   0  0  0  0  0  0  0  0  0  0  0  0
    1.2719   -0.9365    0.6373 H   0  0  0  0  0  0  0  0  0  0  0  0
    0.0540   -1.9933    2.0521 H   0  0  0  0  0  0  0  0  0  0  0  0
   -1.4198   -2.2891    1.0212 H   0  0  0  0  0  0  0  0  0  0  0  0
   -0.7486    0.4743    2.2218 H   0  0  0  0  0  0  0  0  0  0  0  0
   -2.2270    0.0951    1.5609 H   0  0  0  0  0  0  0  0  0  0  0  0
   -1.6394   -0.2932   -0.6700 H   0  0  0  0  0  0  0  0  0  0  0  0
  6 14  1  0
  5 13  1  0
  5  6  1  0
  6  7  1  0
  6  9  1  0
  3  5  1  0
  4  5  1  0
  7 15  1  0
  9 19  1  0
  2 10  1  0
  2  3  1  0
  1  2  2  0
  7 16  1  0
  7  8  1  0
  3  9  1  0
  8  9  1  0
  3  4  1  0
  4 11  1  0
  4 12  1  0
  8 17  1  0
  8 18  1  0
M  END
$$$$

     RDKit          3D

 14 14  0  0  0  0  0  0  0  0999 V2000
   -1.3796    1.3812    0.7454 C   0  0  0  0  0  0  0  0  0  0  0  0
   -0.1240    0.8717    1.1872 O   0  0  0  0  0  0  0  0  0  0  0  0
    0.2577   -0.1880    0.4470 C   0  0  0  0  0  0  0  0  0  0  0  0
    0.8393   -0.1295   -0.7948 C   0  0  0  0  0  0  0  0  0  0  0  0
    1.1818    0.8745   -1.5918 O   0  0  0  0  0  0  0  0  0  0  0  0
    1.0606   -1.4327   -1.1456 N   0  0  0  0  0  0  0  0  0  0  0  0
    0.6941   -2.3228   -0.1974 N   0  0  0  0  0  0  0  0  0  0  0  0
    0.2214   -1.5503    0.7880 C   0  0  0  0  0  0  0  0  0  0  0  0
   -1.2758    1.8881   -0.2191 H   0  0  0  0  0  0  0  0  0  0  0  0
   -2.1319    0.5893    0.6777 H   0  0  0  0  0  0  0  0  0  0  0  0
   -1.7252    2.1136    1.4806 H   0  0  0  0  0  0  0  0  0  0  0  0
    1.0379    1.6880   -1.0741 H   0  0  0  0  0  0  0  0  0  0  0  0
    1.4751   -1.7727   -2.0054 H   0  0  0  0  0  0  0  0  0  0  0  0
   -0.1314   -2.0104    1.7023 H   0  0  0  0  0  0  0  0  0  0  0  0
  1 10  1  0
  5 12  1  0
  1  2  1  0
  2  3  1  0
  1  9  1  0
  1 11  1  0
  4  5  1  0
  3  4  2  0
  3  8  1  0
  4  6  1  0
  8 14  1  0
  7  8  2  0
  6 13  1  0
  6  7  1  0
M  END
$$$$

     RDKit          3D

 20 20  0  0  0  0  0  0  0  0999 V2000
   -1.2715    0.9731    2.2992 C   0  0  0  0  0  0  0  0  0  0  0  0
   -1.3596    0.7025    0.8014 C   0  0  0  0  0  0  0  0  0  0  0  0
   -0.0534    0.0137    0.0672 C   0  0  0  0  0  0  0  0  0  0  0  0
    0.6132    1.1752   -0.7129 N   0  0  0  0  0  0  0  0  0  0  0  0
    1.5204    0.2722   -1.3877 C   0  0  0  0  0  0  0  0  0  0  0  0
    0.6443   -0.9624   -1.0139 C   0  0  0  0  0  0  0  0  0  0  0  0
   -0.1810   -1.4231   -2.1708 N   0  0  0  0  0  0  0  0  0  0  0  0
    0.7567   -0.5453    1.3075 C   0  0  0  0  0  0  0  0  0  0  0  0
    1.2635   -1.2710    2.0950 N   0  0  0  0  0  0  0  0  0  0  0  0
   -1.9172    1.8654    2.6893 H   0  0  0  0  0  0  0  0  0  0  0  0
   -0.1993    1.1882    2.5411 H   0  0  0  0  0  0  0  0  0  0  0  0
   -1.5162    0.0941    2.8519 H   0  0  0  0  0  0  0  0  0  0  0  0
   -1.5906    1.6597    0.3051 H   0  0  0  0  0  0  0  0  0  0  0  0
   -2.2051    0.0897    0.4929 H   0  0  0  0  0  0  0  0  0  0  0  0
   -0.1109    1.5496   -1.4558 H   0  0  0  0  0  0  0  0  0  0  0  0
    1.7313    0.3714   -2.3568 H   0  0  0  0  0  0  0  0  0  0  0  0
    2.5550    0.1670   -0.9988 H   0  0  0  0  0  0  0  0  0  0  0  0
    1.4614   -1.7622   -0.5935 H   0  0  0  0  0  0  0  0  0  0  0  0
    0.5088   -1.7714   -2.8668 H   0  0  0  0  0  0  0  0  0  0  0  0
   -0.6498   -2.3863   -1.8936 H   0  0  0  0  0  0  0  0  0  0  0  0
  8  9  3  0
  3  8  1  0
  5 16  1  0
  6 18  1  0
  5  6  1  0
  3  6  1  0
  6  7  1  0
  4  5  1  0
  5 17  1  0
  3  4  1  0
  2  3  1  0
  4 15  1  0
  1 11  1  0
  2 14  1  0
  7 19  1  0
  1  2  1  0
  2 13  1  0
  7 20  1  0
  1 10  1  0
  1 12  1  0
M  END
$$$$

     RDKit          3D

 19 20  0  0  0  0  0  0  0  0999 V2000
   -1.7583    1.8849    0.5150 C   0  0  0  0  0  0  0  0  0  0  0  0
   -0.9743    0.7030    0.0492 C   0  0  0  0  0  0  0  0  0  0  0  0
   -0.5470    0.3818   -1.1449 C   0  0  0  0  0  0  0  0  0  0  0  0
    0.2209   -0.9031   -1.1664 C   0  0  0  0  0  0  0  0  0  0  0  0
    1.3024   -0.8003   -2.0351 O   0  0  0  0  0  0  0  0  0  0  0  0
    0.6457   -0.9908    0.2482 C   0  0  0  0  0  0  0  0  0  0  0  0
    2.0341   -0.6743    0.7589 C   0  0  0  0  0  0  0  0  0  0  0  0
    1.5517   -2.0384    0.7020 O   0  0  0  0  0  0  0  0  0  0  0  0
   -0.4426   -0.3089    1.0174 C   0  0  0  0  0  0  0  0  0  0  0  0
   -1.0283    2.5315    1.0200 H   0  0  0  0  0  0  0  0  0  0  0  0
   -2.2868    2.3873   -0.2667 H   0  0  0  0  0  0  0  0  0  0  0  0
   -2.4651    1.5974    1.2354 H   0  0  0  0  0  0  0  0  0  0  0  0
   -0.6409    0.9775   -2.0646 H   0  0  0  0  0  0  0  0  0  0  0  0
   -0.4177   -1.7302   -1.5277 H   0  0  0  0  0  0  0  0  0  0  0  0
    1.5921   -1.7096   -2.2187 H   0  0  0  0  0  0  0  0  0  0  0  0
    1.9713   -0.0565    1.6515 H   0  0  0  0  0  0  0  0  0  0  0  0
    2.6191   -0.2470   -0.0334 H   0  0  0  0  0  0  0  0  0  0  0  0
   -1.1704   -1.1418    1.2517 H   0  0  0  0  0  0  0  0  0  0  0  0
   -0.2060    0.1378    2.0079 H   0  0  0  0  0  0  0  0  0  0  0  0
  3 13  1  0
  5 15  1  0
  4  5  1  0
  3  4  1  0
  2  3  2  0
  1 11  1  0
  4 14  1  0
  4  6  1  0
  1  2  1  0
  2  9  1  0
  1 10  1  0
  1 12  1  0
  6  8  1  0
  6  9  1  0
  6  7  1  0
  7  8  1  0
  7 17  1  0
  9 19  1  0
  9 18  1  0
  7 16  1  0
M  END
$$$$

     RDKit          3D

 21 22  0  0  0  0  0  0  0  0999 V2000
   -1.3667    1.7612   -1.6358 C   0  0  0  0  0  0  0  0  0  0  0  0
   -0.1595    0.8097   -1.6676 C   0  0  0  0  0  0  0  0  0  0  0  0
    0.0602    0.1241   -0.3015 C   0  0  0  0  0  0  0  0  0  0  0  0
    1.1310   -0.9285   -0.2090 C   0  0  0  0  0  0  0  0  0  0  0  0
    0.7730   -1.1912    1.2296 C   0  0  0  0  0  0  0  0  0  0  0  0
   -0.7582   -1.4542    1.1482 C   0  0  0  0  0  0  0  0  0  0  0  0
   -1.1635   -0.5704    0.0699 O   0  0  0  0  0  0  0  0  0  0  0  0
    0.9833    0.1820    1.7738 C   0  0  0  0  0  0  0  0  0  0  0  0
    0.4029    1.0365    0.7883 O   0  0  0  0  0  0  0  0  0  0  0  0
   -1.1411    2.6694   -1.0993 H   0  0  0  0  0  0  0  0  0  0  0  0
   -2.1651    1.2915   -1.0602 H   0  0  0  0  0  0  0  0  0  0  0  0
   -1.7846    1.9801   -2.6254 H   0  0  0  0  0  0  0  0  0  0  0  0
   -0.2900    0.0199   -2.4187 H   0  0  0  0  0  0  0  0  0  0  0  0
    0.7224    1.3640   -1.9884 H   0  0  0  0  0  0  0  0  0  0  0  0
    0.9436   -1.7439   -0.8751 H   0  0  0  0  0  0  0  0  0  0  0  0
    2.1690   -0.5838   -0.3268 H   0  0  0  0  0  0  0  0  0  0  0  0
    1.3562   -1.9505    1.7198 H   0  0  0  0  0  0  0  0  0  0  0  0
   -1.0618   -2.4695    0.8968 H   0  0  0  0  0  0  0  0  0  0  0  0
   -1.2832   -1.0859    2.0300 H   0  0  0  0  0  0  0  0  0  0  0  0
    2.0525    0.4314    1.7620 H   0  0  0  0  0  0  0  0  0  0  0  0
    0.5797    0.3081    2.7893 H   0  0  0  0  0  0  0  0  0  0  0  0
  6 18  1  0
  6 19  1  0
  5  6  1  0
  6  7  1  0
  5 17  1  0
  8 21  1  0
  5  8  1  0
  4  5  1  0
  3  7  1  0
  8 20  1  0
  8  9  1  0
  4 16  1  0
  3  4  1  0
  4 15  1  0
  3  9  1  0
  2  3  1  0
  1 11  1  0
  1  2  1  0
  2 14  1  0
  2 13  1  0
  1 10  1  0
  1 12  1  0
M  END
$$$$

     RDKit          3D

 23 23  0  0  0  0  0  0  0  0999 V2000
    0.3861    1.8805   -0.2902 C   0  0  0  0  0  0  0  0  0  0  0  0
    0.7356    1.2041    1.0618 C   0  0  0  0  0  0  0  0  0  0  0  0
   -0.0238   -0.2863    1.1530 C   0  0  0  0  0  0  0  0  0  0  0  0
   -1.4195   -0.2624    1.7688 O   0  0  0  0  0  0  0  0  0  0  0  0
   -2.3003   -1.1692    1.0167 C   0  0  0  0  0  0  0  0  0  0  0  0
   -1.8666   -0.4464   -0.3890 C   0  0  0  0  0  0  0  0  0  0  0  0
   -0.1337   -1.0238   -0.3791 C   0  0  0  0  0  0  0  0  0  0  0  0
    0.8778   -0.9921   -1.5403 O   0  0  0  0  0  0  0  0  0  0  0  0
    2.2666   -0.4417   -1.4241 C   0  0  0  0  0  0  0  0  0  0  0  0
   -0.6639    1.8135   -0.3490 H   0  0  0  0  0  0  0  0  0  0  0  0
    0.5388    1.3235   -1.2098 H   0  0  0  0  0  0  0  0  0  0  0  0
    0.5859    2.9330   -0.3655 H   0  0  0  0  0  0  0  0  0  0  0  0
    1.5000    0.5720    0.6985 H   0  0  0  0  0  0  0  0  0  0  0  0
    1.6616    1.6661    1.7598 H   0  0  0  0  0  0  0  0  0  0  0  0
    0.4911   -0.6984    2.0483 H   0  0  0  0  0  0  0  0  0  0  0  0
   -2.0471   -2.3052    1.0381 H   0  0  0  0  0  0  0  0  0  0  0  0
   -3.2946   -0.9988    1.5256 H   0  0  0  0  0  0  0  0  0  0  0  0
   -1.9848    0.6302   -0.1120 H   0  0  0  0  0  0  0  0  0  0  0  0
   -2.5087   -0.7262   -1.3087 H   0  0  0  0  0  0  0  0  0  0  0  0
   -0.8297   -1.8689   -0.7546 H   0  0  0  0  0  0  0  0  0  0  0  0
    2.4928   -0.3124   -0.2904 H   0  0  0  0  0  0  0  0  0  0  0  0
    3.1510   -1.0223   -1.7473 H   0  0  0  0  0  0  0  0  0  0  0  0
    2.3853    0.5313   -1.9108 H   0  0  0  0  0  0  0  0  0  0  0  0
  2 14  1  0
  1 11  1  0
  9 21  1  0
  9 22  1  0
  2 13  1  0
  1  2  1  0
  2  3  1  0
  8  9  1  0
  9 23  1  0
  1 10  1  0
  1 12  1  0
  7  8  1  0
  7 20  1  0
  3  7  1  0
  6  7  1  0
  3 15  1  0
  3  4  1  0
  4  5  1  0
  6 19  1  0
  6 18  1  0
  5  6  1  0
  5 16  1  0
  5 17  1  0
M  END
$$$$

     RDKit          3D

 21 20  0  0  0  0  0  0  0  0999 V2000
   -0.4054    2.4751    2.8306 C   0  0  0  0  0  0  0  0  0  0  0  0
   -0.7142    2.0737    1.4580 C   0  0  0  0  0  0  0  0  0  0  0  0
   -0.9113    1.7245    0.3169 C   0  0  0  0  0  0  0  0  0  0  0  0
   -1.0096    1.2648   -1.0692 C   0  0  0  0  0  0  0  0  0  0  0  0
   -0.4972   -0.1846   -1.2443 C   0  0  0  0  0  0  0  0  0  0  0  0
    0.9066   -0.4012   -0.6609 C   0  0  0  0  0  0  0  0  0  0  0  0
    1.5193   -1.7865   -0.8927 C   0  0  0  0  0  0  0  0  0  0  0  0
    0.5970   -2.8884   -0.6234 C   0  0  0  0  0  0  0  0  0  0  0  0
   -0.1721   -3.7880   -0.4237 C   0  0  0  0  0  0  0  0  0  0  0  0
   -1.3027    2.9011    3.3171 H   0  0  0  0  0  0  0  0  0  0  0  0
    0.3803    3.2406    2.8472 H   0  0  0  0  0  0  0  0  0  0  0  0
   -0.0754    1.6209    3.4360 H   0  0  0  0  0  0  0  0  0  0  0  0
   -2.0588    1.3247   -1.3996 H   0  0  0  0  0  0  0  0  0  0  0  0
   -0.4334    1.9339   -1.7250 H   0  0  0  0  0  0  0  0  0  0  0  0
   -0.5109   -0.4197   -2.3195 H   0  0  0  0  0  0  0  0  0  0  0  0
   -1.2017   -0.8708   -0.7518 H   0  0  0  0  0  0  0  0  0  0  0  0
    0.8703   -0.2350    0.4255 H   0  0  0  0  0  0  0  0  0  0  0  0
    1.5676    0.3636   -1.0809 H   0  0  0  0  0  0  0  0  0  0  0  0
    2.4003   -1.8956   -0.2267 H   0  0  0  0  0  0  0  0  0  0  0  0
    1.9082   -1.8691   -1.9286 H   0  0  0  0  0  0  0  0  0  0  0  0
   -0.8571   -4.5840   -0.2849 H   0  0  0  0  0  0  0  0  0  0  0  0
  4 13  1  0
  6 17  1  0
  5 16  1  0
  7 20  1  0
  1 11  1  0
  9 21  1  0
  8  9  3  0
  3  4  1  0
  4  5  1  0
  4 14  1  0
  5  6  1  0
  6  7  1  0
  6 18  1  0
  7  8  1  0
  2  3  3  0
  5 15  1  0
  7 19  1  0
  1  2  1  0
  1 10  1  0
  1 12  1  0
M  END
$$$$

     RDKit          3D

 22 23  0  0  0  0  0  0  0  0999 V2000
    0.0142    1.9386   -0.0246 C   0  0  0  0  0  0  0  0  0  0  0  0
    0.3528    0.4874    0.2826 C   0  0  0  0  0  0  0  0  0  0  0  0
   -0.7572   -0.2744    0.9978 C   0  0  0  0  0  0  0  0  0  0  0  0
   -1.3236    0.1621    2.2940 C   0  0  0  0  0  0  0  0  0  0  0  0
   -1.0756   -1.3760    0.2929 C   0  0  0  0  0  0  0  0  0  0  0  0
   -0.3089   -1.5285   -0.9519 C   0  0  0  0  0  0  0  0  0  0  0  0
   -0.4387   -0.5344   -2.0035 N   0  0  0  0  0  0  0  0  0  0  0  0
    0.6210   -0.3212   -0.9960 C   0  0  0  0  0  0  0  0  0  0  0  0
    2.0471   -0.5229   -1.4026 C   0  0  0  0  0  0  0  0  0  0  0  0
   -0.9015    2.0349   -0.6193 H   0  0  0  0  0  0  0  0  0  0  0  0
    0.8319    2.4123   -0.5730 H   0  0  0  0  0  0  0  0  0  0  0  0
   -0.1371    2.5136    0.8906 H   0  0  0  0  0  0  0  0  0  0  0  0
    1.2418    0.4496    0.9241 H   0  0  0  0  0  0  0  0  0  0  0  0
   -1.8269   -0.6619    2.8092 H   0  0  0  0  0  0  0  0  0  0  0  0
   -0.5271    0.5432    2.9451 H   0  0  0  0  0  0  0  0  0  0  0  0
   -2.0648    0.9583    2.1500 H   0  0  0  0  0  0  0  0  0  0  0  0
   -1.8154   -2.1137    0.5831 H   0  0  0  0  0  0  0  0  0  0  0  0
    0.0497   -2.5090   -1.2299 H   0  0  0  0  0  0  0  0  0  0  0  0
   -1.2418    0.0711   -1.8296 H   0  0  0  0  0  0  0  0  0  0  0  0
    2.6462    0.3806   -1.2001 H   0  0  0  0  0  0  0  0  0  0  0  0
    2.1354   -0.7368   -2.4746 H   0  0  0  0  0  0  0  0  0  0  0  0
    2.4785   -1.3727   -0.8642 H   0  0  0  0  0  0  0  0  0  0  0  0
  4 15  1  0
  4 16  1  0
  4 14  1  0
  3  4  1  0
  5 17  1  0
  3  5  2  0
  2  3  1  0
  1 11  1  0
  5  6  1  0
  2 13  1  0
  1  2  1  0
  2  8  1  0
  1 10  1  0
  1 12  1  0
  6 18  1  0
  6  8  1  0
  6  7  1  0
  7  8  1  0
  8  9  1  0
  7 19  1  0
  9 21  1  0
  9 20  1  0
  9 22  1  0
M  END
$$$$

     RDKit          3D

 19 20  0  0  0  0  0  0  0  0999 V2000
   -1.0149    0.3653   -2.4339 O   0  0  0  0  0  0  0  0  0  0  0  0
   -0.1639    0.1438   -1.3164 C   0  0  0  0  0  0  0  0  0  0  0  0
    1.3096    0.2560   -1.5227 C   0  0  0  0  0  0  0  0  0  0  0  0
    0.5670    1.3301   -0.7974 C   0  0  0  0  0  0  0  0  0  0  0  0
   -0.1681    1.2348    0.4917 C   0  0  0  0  0  0  0  0  0  0  0  0
   -0.8036   -0.1071    0.0142 C   0  0  0  0  0  0  0  0  0  0  0  0
   -0.4269   -1.4541    0.6478 C   0  0  0  0  0  0  0  0  0  0  0  0
    0.1403   -1.3478    1.9969 C   0  0  0  0  0  0  0  0  0  0  0  0
    0.6344   -1.3379    3.0916 C   0  0  0  0  0  0  0  0  0  0  0  0
   -1.8610    0.7579   -2.1797 H   0  0  0  0  0  0  0  0  0  0  0  0
    1.9713   -0.3785   -0.9443 H   0  0  0  0  0  0  0  0  0  0  0  0
    1.6802    0.4722   -2.5195 H   0  0  0  0  0  0  0  0  0  0  0  0
    0.4459    2.3015   -1.2728 H   0  0  0  0  0  0  0  0  0  0  0  0
    0.4430    1.2064    1.3988 H   0  0  0  0  0  0  0  0  0  0  0  0
   -0.9135    2.0328    0.6032 H   0  0  0  0  0  0  0  0  0  0  0  0
   -1.9019   -0.0392   -0.0166 H   0  0  0  0  0  0  0  0  0  0  0  0
   -1.3147   -2.0948    0.6808 H   0  0  0  0  0  0  0  0  0  0  0  0
    0.2947   -1.9893    0.0158 H   0  0  0  0  0  0  0  0  0  0  0  0
    1.0821   -1.3524    4.0626 H   0  0  0  0  0  0  0  0  0  0  0  0
  3 11  1  0
  3 12  1  0
  2  3  1  0
  3  4  1  0
  1 10  1  0
  7 17  1  0
  1  2  1  0
  2  4  1  0
  2  6  1  0
  4 13  1  0
  4  5  1  0
  7 18  1  0
  5 15  1  0
  6  7  1  0
  7  8  1  0
  5  6  1  0
  6 16  1  0
  5 14  1  0
  8  9  3  0
  9 19  1  0
M  END
$$$$

     RDKit          3D

 17 16  0  0  0  0  0  0  0  0999 V2000
   -2.1010    1.0687    0.8765 C   0  0  0  0  0  0  0  0  0  0  0  0
   -0.7458    1.4667    1.0514 O   0  0  0  0  0  0  0  0  0  0  0  0
    0.1810    0.3810    0.9089 C   0  0  0  0  0  0  0  0  0  0  0  0
    0.5697    0.1596   -0.5665 C   0  0  0  0  0  0  0  0  0  0  0  0
    1.3371    1.2938   -1.0129 O   0  0  0  0  0  0  0  0  0  0  0  0
    1.4218   -1.0953   -0.7560 C   0  0  0  0  0  0  0  0  0  0  0  0
    0.6560   -2.3168   -0.5017 C   0  0  0  0  0  0  0  0  0  0  0  0
    0.0566   -3.2899   -0.2961 N   0  0  0  0  0  0  0  0  0  0  0  0
   -2.2508    0.5957   -0.0966 H   0  0  0  0  0  0  0  0  0  0  0  0
   -2.4058    0.3929    1.6841 H   0  0  0  0  0  0  0  0  0  0  0  0
   -2.7234    1.9669    0.9253 H   0  0  0  0  0  0  0  0  0  0  0  0
    1.0763    0.6650    1.4791 H   0  0  0  0  0  0  0  0  0  0  0  0
   -0.2362   -0.5187    1.3759 H   0  0  0  0  0  0  0  0  0  0  0  0
   -0.3308    0.1275   -1.1854 H   0  0  0  0  0  0  0  0  0  0  0  0
    1.3804    1.2683   -1.9882 H   0  0  0  0  0  0  0  0  0  0  0  0
    2.3082   -1.0494   -0.1152 H   0  0  0  0  0  0  0  0  0  0  0  0
    1.8068   -1.1159   -1.7827 H   0  0  0  0  0  0  0  0  0  0  0  0
  1 10  1  0
  5 15  1  0
  4  5  1  0
  1  2  1  0
  1  9  1  0
  1 11  1  0
  2  3  1  0
  4 14  1  0
  3  4  1  0
  4  6  1  0
  3 12  1  0
  3 13  1  0
  7  8  3  0
  6  7  1  0
  6 16  1  0
  6 17  1  0
M  END
$$$$

     RDKit          3D

 20 21  0  0  0  0  0  0  0  0999 V2000
    0.5250   -0.3944   -2.1678 C   0  0  0  0  0  0  0  0  0  0  0  0
    1.3931    0.1409   -1.0015 C   0  0  0  0  0  0  0  0  0  0  0  0
    0.0612    0.0690   -0.1203 C   0  0  0  0  0  0  0  0  0  0  0  0
   -0.7982   -0.2397   -1.3897 C   0  0  0  0  0  0  0  0  0  0  0  0
   -0.2522    1.2420    0.7654 C   0  0  0  0  0  0  0  0  0  0  0  0
   -0.6098    0.6666    2.1322 C   0  0  0  0  0  0  0  0  0  0  0  0
   -0.4422   -0.8139    1.9983 C   0  0  0  0  0  0  0  0  0  0  0  0
   -0.1626   -1.1585    0.7429 C   0  0  0  0  0  0  0  0  0  0  0  0
    0.8855   -1.4317   -2.3034 H   0  0  0  0  0  0  0  0  0  0  0  0
    0.5669    0.2002   -3.1009 H   0  0  0  0  0  0  0  0  0  0  0  0
    1.9172    0.9089   -1.6221 H   0  0  0  0  0  0  0  0  0  0  0  0
    2.1323   -0.4881   -0.4942 H   0  0  0  0  0  0  0  0  0  0  0  0
   -1.4371    0.5774   -1.6850 H   0  0  0  0  0  0  0  0  0  0  0  0
   -1.3418   -1.1785   -1.5349 H   0  0  0  0  0  0  0  0  0  0  0  0
    0.6295    1.8490    0.7978 H   0  0  0  0  0  0  0  0  0  0  0  0
   -1.1473    1.8330    0.4904 H   0  0  0  0  0  0  0  0  0  0  0  0
   -1.6019    0.9778    2.3559 H   0  0  0  0  0  0  0  0  0  0  0  0
    0.1562    1.0020    2.7859 H   0  0  0  0  0  0  0  0  0  0  0  0
   -0.8002   -1.5990    2.7513 H   0  0  0  0  0  0  0  0  0  0  0  0
    0.3263   -2.1629    0.5999 H   0  0  0  0  0  0  0  0  0  0  0  0
  4 14  1  0
  1 10  1  0
  2 11  1  0
  5 16  1  0
  5 15  1  0
  1  4  1  0
  1  2  1  0
  1  9  1  0
  4 13  1  0
  3  4  1  0
  2  3  1  0
  2 12  1  0
  3  5  1  0
  5  6  1  0
  3  8  1  0
  6 18  1  0
  6 17  1  0
  6  7  1  0
  7  8  2  0
  8 20  1  0
  7 19  1  0
M  END
$$$$

     RDKit          3D

 17 17  0  0  0  0  0  0  0  0999 V2000
   -1.0624   -0.7678    2.7813 C   0  0  0  0  0  0  0  0  0  0  0  0
   -0.1619   -0.5794    1.6541 N   0  0  0  0  0  0  0  0  0  0  0  0
   -0.8804   -0.0123    0.4962 C   0  0  0  0  0  0  0  0  0  0  0  0
    0.0261    0.2838   -0.6842 C   0  0  0  0  0  0  0  0  0  0  0  0
    0.0641   -0.5923   -1.7131 N   0  0  0  0  0  0  0  0  0  0  0  0
    0.9188   -0.2757   -2.7035 C   0  0  0  0  0  0  0  0  0  0  0  0
    1.6890    0.8636   -2.6832 C   0  0  0  0  0  0  0  0  0  0  0  0
    1.6139    1.7182   -1.6496 N   0  0  0  0  0  0  0  0  0  0  0  0
    0.7723    1.4177   -0.6249 N   0  0  0  0  0  0  0  0  0  0  0  0
   -0.5066   -1.1911    3.6237 H   0  0  0  0  0  0  0  0  0  0  0  0
   -1.8653   -1.4694    2.5329 H   0  0  0  0  0  0  0  0  0  0  0  0
   -1.5041    0.1796    3.1095 H   0  0  0  0  0  0  0  0  0  0  0  0
    0.5881    0.0632    1.9160 H   0  0  0  0  0  0  0  0  0  0  0  0
   -1.3735    0.9266    0.7825 H   0  0  0  0  0  0  0  0  0  0  0  0
   -1.6607   -0.7106    0.1682 H   0  0  0  0  0  0  0  0  0  0  0  0
    0.9666   -0.9775   -3.5294 H   0  0  0  0  0  0  0  0  0  0  0  0
    2.3759    1.1233   -3.4765 H   0  0  0  0  0  0  0  0  0  0  0  0
  6 16  1  0
  1 10  1  0
  1 11  1  0
  5  6  1  0
  6  7  2  0
  7 17  1  0
  1 12  1  0
  1  2  1  0
  4  5  2  0
  7  8  1  0
  2 13  1  0
  2  3  1  0
  4  9  1  0
  3  4  1  0
  8  9  2  0
  3 15  1  0
  3 14  1  0
M  END
$$$$

     RDKit          3D

 23 23  0  0  0  0  0  0  0  0999 V2000
    0.0885    2.3883   -0.0126 C   0  0  0  0  0  0  0  0  0  0  0  0
    0.0055    1.1171   -0.6710 C   0  0  0  0  0  0  0  0  0  0  0  0
   -1.1741    0.3254   -0.5979 C   0  0  0  0  0  0  0  0  0  0  0  0
   -2.3828    0.6147    0.2373 C   0  0  0  0  0  0  0  0  0  0  0  0
    0.3172   -0.2647    0.0258 C   0  0  0  0  0  0  0  0  0  0  0  0
    1.7346    0.1258    0.3900 C   0  0  0  0  0  0  0  0  0  0  0  0
    0.0487   -1.8213   -0.2088 C   0  0  0  0  0  0  0  0  0  0  0  0
    1.1802   -2.8017    0.1231 C   0  0  0  0  0  0  0  0  0  0  0  0
   -1.1163   -2.3523   -0.3331 O   0  0  0  0  0  0  0  0  0  0  0  0
    0.0372    2.3684    1.0603 H   0  0  0  0  0  0  0  0  0  0  0  0
    1.0767    2.8391   -0.3156 H   0  0  0  0  0  0  0  0  0  0  0  0
   -0.7536    3.1250   -0.3876 H   0  0  0  0  0  0  0  0  0  0  0  0
    0.3432    1.0810   -1.6913 H   0  0  0  0  0  0  0  0  0  0  0  0
   -1.5832   -0.2001   -1.4812 H   0  0  0  0  0  0  0  0  0  0  0  0
   -3.4238    0.5284   -0.4444 H   0  0  0  0  0  0  0  0  0  0  0  0
   -2.5645   -0.0390    1.1576 H   0  0  0  0  0  0  0  0  0  0  0  0
   -2.4991    1.6812    0.4058 H   0  0  0  0  0  0  0  0  0  0  0  0
    2.0754   -0.5511    1.2704 H   0  0  0  0  0  0  0  0  0  0  0  0
    2.1492    0.9140    0.9926 H   0  0  0  0  0  0  0  0  0  0  0  0
    2.2260    0.2893   -0.6105 H   0  0  0  0  0  0  0  0  0  0  0  0
    1.3153   -3.5092   -0.6012 H   0  0  0  0  0  0  0  0  0  0  0  0
    0.7539   -3.4214    1.1040 H   0  0  0  0  0  0  0  0  0  0  0  0
    2.1457   -2.4368    0.5884 H   0  0  0  0  0  0  0  0  0  0  0  0
  1 11  1  0
  1 12  1  0
  1 10  1  0
  1  2  1  0
  4 17  1  0
  2 13  1  0
  2  3  1  0
  2  5  1  0
  4 15  1  0
  3  4  1  0
  4 16  1  0
  3 14  1  0
  3  5  1  0
  6 18  1  0
  5  6  1  0
  5  7  1  0
  7  9  2  0
  6 19  1  0
  6 20  1  0
  7  8  1  0
  8 21  1  0
  8 22  1  0
  8 23  1  0
M  END
$$$$

     RDKit          3D

 23 23  0  0  0  0  0  0  0  0999 V2000
    1.5649    2.0931   -0.5374 C   0  0  0  0  0  0  0  0  0  0  0  0
    0.6218    1.1702   -1.3091 C   0  0  0  0  0  0  0  0  0  0  0  0
   -0.7518    1.0752   -0.6241 C   0  0  0  0  0  0  0  0  0  0  0  0
   -0.8583    0.1698    0.6334 C   0  0  0  0  0  0  0  0  0  0  0  0
   -2.2228   -0.3320    0.6418 O   0  0  0  0  0  0  0  0  0  0  0  0
   -2.1841   -1.6968    0.1421 C   0  0  0  0  0  0  0  0  0  0  0  0
   -0.7820   -2.1444    0.3518 C   0  0  0  0  0  0  0  0  0  0  0  0
   -0.0178   -1.0838    0.6591 C   0  0  0  0  0  0  0  0  0  0  0  0
    1.4099   -1.1338    1.1022 C   0  0  0  0  0  0  0  0  0  0  0  0
    2.5972    2.0323   -0.9324 H   0  0  0  0  0  0  0  0  0  0  0  0
    1.2208    3.1494   -0.6697 H   0  0  0  0  0  0  0  0  0  0  0  0
    1.5738    1.9073    0.5417 H   0  0  0  0  0  0  0  0  0  0  0  0
    1.0577    0.1688   -1.4127 H   0  0  0  0  0  0  0  0  0  0  0  0
    0.4638    1.5910   -2.3167 H   0  0  0  0  0  0  0  0  0  0  0  0
   -1.5015    0.7906   -1.3605 H   0  0  0  0  0  0  0  0  0  0  0  0
   -1.0203    2.0797   -0.2890 H   0  0  0  0  0  0  0  0  0  0  0  0
   -0.6948    0.7425    1.5550 H   0  0  0  0  0  0  0  0  0  0  0  0
   -2.4995   -1.7420   -0.9113 H   0  0  0  0  0  0  0  0  0  0  0  0
   -2.8786   -2.2835    0.7571 H   0  0  0  0  0  0  0  0  0  0  0  0
   -0.4598   -3.1611    0.3079 H   0  0  0  0  0  0  0  0  0  0  0  0
    1.7359   -2.1579    1.2934 H   0  0  0  0  0  0  0  0  0  0  0  0
    2.1131   -0.6981    0.3604 H   0  0  0  0  0  0  0  0  0  0  0  0
    1.5127   -0.5366    2.0169 H   0  0  0  0  0  0  0  0  0  0  0  0
  7 20  1  0
  9 21  1  0
  9 22  1  0
  7  8  2  0
  6  7  1  0
  8  9  1  0
  9 23  1  0
  6 19  1  0
  4  8  1  0
  6 18  1  0
  5  6  1  0
  3 15  1  0
  3 16  1  0
  3  4  1  0
  4  5  1  0
  4 17  1  0
  2  3  1  0
  1 11  1  0
  1 10  1  0
  1  2  1  0
  1 12  1  0
  2 14  1  0
  2 13  1  0
M  END
$$$$

     RDKit          3D

 20 22  0  0  0  0  0  0  0  0999 V2000
    0.6885   -1.7462    1.7407 C   0  0  0  0  0  0  0  0  0  0  0  0
   -0.6332   -1.2423    1.3743 O   0  0  0  0  0  0  0  0  0  0  0  0
   -0.7519    0.1171    0.8409 C   0  0  0  0  0  0  0  0  0  0  0  0
    0.4125    1.1266    0.9692 C   0  0  0  0  0  0  0  0  0  0  0  0
    1.6207    1.1139    0.0461 C   0  0  0  0  0  0  0  0  0  0  0  0
    0.2580    1.5679   -0.3717 N   0  0  0  0  0  0  0  0  0  0  0  0
   -0.5747    0.4192   -0.6486 C   0  0  0  0  0  0  0  0  0  0  0  0
   -0.4525   -0.3518   -1.9202 C   0  0  0  0  0  0  0  0  0  0  0  0
   -1.6644    0.4391   -1.6215 C   0  0  0  0  0  0  0  0  0  0  0  0
    0.9384   -2.4908    0.9990 H   0  0  0  0  0  0  0  0  0  0  0  0
    1.4539   -0.9738    1.7116 H   0  0  0  0  0  0  0  0  0  0  0  0
    0.6816   -2.2050    2.7282 H   0  0  0  0  0  0  0  0  0  0  0  0
   -1.6713    0.5369    1.3035 H   0  0  0  0  0  0  0  0  0  0  0  0
    0.2448    1.9079    1.7278 H   0  0  0  0  0  0  0  0  0  0  0  0
    2.3642    1.8602    0.2937 H   0  0  0  0  0  0  0  0  0  0  0  0
    1.9156    0.1430   -0.3210 H   0  0  0  0  0  0  0  0  0  0  0  0
   -0.4586   -1.4385   -1.7652 H   0  0  0  0  0  0  0  0  0  0  0  0
   -0.0279    0.0115   -2.8978 H   0  0  0  0  0  0  0  0  0  0  0  0
   -2.4940   -0.2540   -2.1290 H   0  0  0  0  0  0  0  0  0  0  0  0
   -1.8498    1.4591   -2.0600 H   0  0  0  0  0  0  0  0  0  0  0  0
  9 20  1  0
  9 19  1  0
  7  9  1  0
  8  9  1  0
  3 13  1  0
  6  7  1  0
  7  8  1  0
  3  7  1  0
  4  6  1  0
  5  6  1  0
  8 17  1  0
  8 18  1  0
  3  4  1  0
  2  3  1  0
  4 14  1  0
  4  5  1  0
  1 11  1  0
  1  2  1  0
  5 15  1  0
  5 16  1  0
  1 10  1  0
  1 12  1  0
M  END
$$$$

     RDKit          3D

 20 22  0  0  0  0  0  0  0  0999 V2000
   -0.5099    0.3915   -2.0833 C   0  0  0  0  0  0  0  0  0  0  0  0
    0.6426    0.5684   -1.1269 C   0  0  0  0  0  0  0  0  0  0  0  0
    0.6033    1.3918    0.2107 C   0  0  0  0  0  0  0  0  0  0  0  0
    1.6929    0.4104    0.7022 O   0  0  0  0  0  0  0  0  0  0  0  0
    0.6620   -0.4932    0.0337 C   0  0  0  0  0  0  0  0  0  0  0  0
    0.9470   -1.9432    0.1885 C   0  0  0  0  0  0  0  0  0  0  0  0
   -0.2873    0.3418    0.7494 C   0  0  0  0  0  0  0  0  0  0  0  0
   -0.8935    0.3129    2.1265 C   0  0  0  0  0  0  0  0  0  0  0  0
   -1.6723    0.3491    0.8545 N   0  0  0  0  0  0  0  0  0  0  0  0
   -0.2664    0.8049   -3.0582 H   0  0  0  0  0  0  0  0  0  0  0  0
   -1.4465    0.8326   -1.7072 H   0  0  0  0  0  0  0  0  0  0  0  0
   -0.8333   -0.6704   -2.3628 H   0  0  0  0  0  0  0  0  0  0  0  0
    1.5806    0.7656   -1.7079 H   0  0  0  0  0  0  0  0  0  0  0  0
    0.6842    2.4372    0.4793 H   0  0  0  0  0  0  0  0  0  0  0  0
    1.7608   -2.1515   -0.5056 H   0  0  0  0  0  0  0  0  0  0  0  0
    1.3781   -2.2382    1.1601 H   0  0  0  0  0  0  0  0  0  0  0  0
    0.0534   -2.5798   -0.0331 H   0  0  0  0  0  0  0  0  0  0  0  0
   -1.6521    0.8393    2.7697 H   0  0  0  0  0  0  0  0  0  0  0  0
   -0.3526    1.2085    2.6052 H   0  0  0  0  0  0  0  0  0  0  0  0
   -2.0912   -0.5775    0.7052 H   0  0  0  0  0  0  0  0  0  0  0  0
  3 14  1  0
  8 19  1  0
  1 11  1  0
  2  3  1  0
  3  7  1  0
  3  4  1  0
  2 13  1  0
  9 20  1  0
  7  8  1  0
  8  9  1  0
  8 18  1  0
  1  2  1  0
  2  5  1  0
  1 10  1  0
  1 12  1  0
  7  9  1  0
  5  7  1  0
  4  5  1  0
  5  6  1  0
  6 16  1  0
  6 15  1  0
  6 17  1  0
M  END
$$$$

     RDKit          3D

 18 19  0  0  0  0  0  0  0  0999 V2000
    1.4815   -0.0913   -3.1744 O   0  0  0  0  0  0  0  0  0  0  0  0
    1.0099   -0.0794   -2.0364 C   0  0  0  0  0  0  0  0  0  0  0  0
   -0.3399   -0.0044   -1.7508 N   0  0  0  0  0  0  0  0  0  0  0  0
   -0.8795    0.7083   -0.6290 C   0  0  0  0  0  0  0  0  0  0  0  0
   -0.0409    1.3422    0.4445 C   0  0  0  0  0  0  0  0  0  0  0  0
    0.1382    0.4529    1.6906 C   0  0  0  0  0  0  0  0  0  0  0  0
    0.3203   -1.0077    1.3833 C   0  0  0  0  0  0  0  0  0  0  0  0
   -0.1871   -1.5440    0.2611 C   0  0  0  0  0  0  0  0  0  0  0  0
   -0.9611   -0.7817   -0.7232 C   0  0  0  0  0  0  0  0  0  0  0  0
    1.6633   -0.1390   -1.1484 H   0  0  0  0  0  0  0  0  0  0  0  0
   -1.7497    1.3013   -0.8660 H   0  0  0  0  0  0  0  0  0  0  0  0
   -0.5297    2.2750    0.7573 H   0  0  0  0  0  0  0  0  0  0  0  0
    0.9310    1.6550    0.0541 H   0  0  0  0  0  0  0  0  0  0  0  0
   -0.7472    0.5564    2.3351 H   0  0  0  0  0  0  0  0  0  0  0  0
    1.0010    0.8190    2.2598 H   0  0  0  0  0  0  0  0  0  0  0  0
    0.8449   -1.6320    2.0995 H   0  0  0  0  0  0  0  0  0  0  0  0
   -0.0506   -2.6084    0.0649 H   0  0  0  0  0  0  0  0  0  0  0  0
   -1.9044   -1.2222   -1.0221 H   0  0  0  0  0  0  0  0  0  0  0  0
  9 18  1  0
  4 11  1  0
  3  9  1  0
  3  4  1  0
  2  3  1  0
  4  9  1  0
  8  9  1  0
  4  5  1  0
  2 10  1  0
  1  2  2  0
  8 17  1  0
  7  8  2  0
  5 13  1  0
  5 12  1  0
  5  6  1  0
  6  7  1  0
  7 16  1  0
  6 15  1  0
  6 14  1  0
M  END
$$$$

     RDKit          3D

 15 16  0  0  0  0  0  0  0  0999 V2000
    2.2466    0.1208    1.6134 O   0  0  0  0  0  0  0  0  0  0  0  0
    1.4310    0.2939    0.7325 C   0  0  0  0  0  0  0  0  0  0  0  0
    1.4677    0.0565   -0.7881 C   0  0  0  0  0  0  0  0  0  0  0  0
   -0.0170    0.4924   -0.8356 C   0  0  0  0  0  0  0  0  0  0  0  0
   -1.0238   -0.6093   -0.9538 C   0  0  0  0  0  0  0  0  0  0  0  0
   -1.5850   -0.9671    0.2136 C   0  0  0  0  0  0  0  0  0  0  0  0
   -1.0215   -0.1410    1.3101 C   0  0  0  0  0  0  0  0  0  0  0  0
   -1.3918   -0.2748    2.4665 O   0  0  0  0  0  0  0  0  0  0  0  0
    0.0006    0.8411    0.6866 C   0  0  0  0  0  0  0  0  0  0  0  0
    1.6791   -0.9782   -1.0707 H   0  0  0  0  0  0  0  0  0  0  0  0
    2.1555    0.7281   -1.3098 H   0  0  0  0  0  0  0  0  0  0  0  0
   -0.2300    1.3363   -1.4994 H   0  0  0  0  0  0  0  0  0  0  0  0
   -1.2720   -1.0661   -1.9045 H   0  0  0  0  0  0  0  0  0  0  0  0
   -2.3303   -1.7256    0.3887 H   0  0  0  0  0  0  0  0  0  0  0  0
   -0.1090    1.8931    0.9504 H   0  0  0  0  0  0  0  0  0  0  0  0
  9 15  1  0
  1  2  2  0
  3 10  1  0
  2  9  1  0
  2  3  1  0
  4  9  1  0
  7  9  1  0
  4 12  1  0
  3  4  1  0
  3 11  1  0
  4  5  1  0
  7  8  2  0
  6  7  1  0
  5  6  2  0
  5 13  1  0
  6 14  1  0
M  END
$$$$

     RDKit          3D

 18 17  0  0  0  0  0  0  0  0999 V2000
    0.7083   -0.1543   -1.8927 C   0  0  0  0  0  0  0  0  0  0  0  0
    0.5782   -0.5537   -0.4171 C   0  0  0  0  0  0  0  0  0  0  0  0
   -0.8623   -0.6197   -0.4525 O   0  0  0  0  0  0  0  0  0  0  0  0
   -1.5831    0.0643    0.4521 C   0  0  0  0  0  0  0  0  0  0  0  0
   -2.7420   -0.2550    0.6708 O   0  0  0  0  0  0  0  0  0  0  0  0
   -0.8667    1.2355    1.2068 C   0  0  0  0  0  0  0  0  0  0  0  0
   -0.2376    2.2582    0.3612 N   0  0  0  0  0  0  0  0  0  0  0  0
    0.8640   -1.5828    0.6432 C   0  0  0  0  0  0  0  0  0  0  0  0
    0.9903   -2.4944    1.3995 C   0  0  0  0  0  0  0  0  0  0  0  0
    0.1309    0.7328   -2.1231 H   0  0  0  0  0  0  0  0  0  0  0  0
    1.7319    0.0147   -2.2205 H   0  0  0  0  0  0  0  0  0  0  0  0
    0.2331   -0.9046   -2.5464 H   0  0  0  0  0  0  0  0  0  0  0  0
    1.2442   -1.2851   -0.8678 H   0  0  0  0  0  0  0  0  0  0  0  0
   -0.1932    0.7699    1.9339 H   0  0  0  0  0  0  0  0  0  0  0  0
   -1.6418    1.7504    1.7896 H   0  0  0  0  0  0  0  0  0  0  0  0
    0.7524    2.3621    0.6322 H   0  0  0  0  0  0  0  0  0  0  0  0
   -0.2323    2.0076   -0.6228 H   0  0  0  0  0  0  0  0  0  0  0  0
    1.1256   -3.3460    2.0537 H   0  0  0  0  0  0  0  0  0  0  0  0
  9 18  1  0
  8  9  3  0
  2  8  1  0
  1 11  1  0
  1 10  1  0
  1  2  1  0
  1 12  1  0
  2  3  1  0
  2 13  1  0
  3  4  1  0
  6 14  1  0
  6 15  1  0
  4  6  1  0
  6  7  1  0
  4  5  2  0
  7 17  1  0
  7 16  1  0
M  END
$$$$

     RDKit          3D

 21 22  0  0  0  0  0  0  0  0999 V2000
    0.9482    1.2246    1.5849 C   0  0  0  0  0  0  0  0  0  0  0  0
    0.1424    0.5611    0.5005 C   0  0  0  0  0  0  0  0  0  0  0  0
   -1.0782    1.3296    0.0246 C   0  0  0  0  0  0  0  0  0  0  0  0
   -2.1710    1.1519    0.9162 O   0  0  0  0  0  0  0  0  0  0  0  0
    0.1102   -0.9424    0.5434 C   0  0  0  0  0  0  0  0  0  0  0  0
   -0.3162   -1.9490   -0.4611 C   0  0  0  0  0  0  0  0  0  0  0  0
    0.3597   -1.1232   -1.5743 C   0  0  0  0  0  0  0  0  0  0  0  0
   -0.5379   -0.5548   -2.5508 O   0  0  0  0  0  0  0  0  0  0  0  0
    0.9087   -0.2207   -0.5240 C   0  0  0  0  0  0  0  0  0  0  0  0
    0.4086    1.1681    2.5333 H   0  0  0  0  0  0  0  0  0  0  0  0
    1.1091    2.2580    1.3260 H   0  0  0  0  0  0  0  0  0  0  0  0
    1.9370    0.7455    1.6797 H   0  0  0  0  0  0  0  0  0  0  0  0
   -0.8389    2.4042   -0.0078 H   0  0  0  0  0  0  0  0  0  0  0  0
   -1.4379    1.0353   -0.9657 H   0  0  0  0  0  0  0  0  0  0  0  0
   -1.8545    1.0927    1.8448 H   0  0  0  0  0  0  0  0  0  0  0  0
    0.6217   -1.4401    1.3620 H   0  0  0  0  0  0  0  0  0  0  0  0
    0.0862   -2.9832   -0.2924 H   0  0  0  0  0  0  0  0  0  0  0  0
   -1.3968   -2.0850   -0.5293 H   0  0  0  0  0  0  0  0  0  0  0  0
    1.1454   -1.6654   -2.0941 H   0  0  0  0  0  0  0  0  0  0  0  0
   -0.1160    0.2768   -2.8469 H   0  0  0  0  0  0  0  0  0  0  0  0
    1.9701   -0.2839   -0.4690 H   0  0  0  0  0  0  0  0  0  0  0  0
  4 15  1  0
  3  4  1  0
  1 11  1  0
  5 16  1  0
  3 13  1  0
  2  3  1  0
  3 14  1  0
  2  5  1  0
  5  6  1  0
  5  9  1  0
  6 18  1  0
  1  2  1  0
  1 10  1  0
  1 12  1  0
  2  9  1  0
  6 17  1  0
  6  7  1  0
  9 21  1  0
  7  9  1  0
  7 19  1  0
  7  8  1  0
  8 20  1  0
M  END
$$$$

     RDKit          3D

 23 23  0  0  0  0  0  0  0  0999 V2000
   -0.0081    2.2562   -0.0023 C   0  0  0  0  0  0  0  0  0  0  0  0
   -1.2748    1.5328    0.4113 C   0  0  0  0  0  0  0  0  0  0  0  0
   -1.1412    0.0087    0.6230 C   0  0  0  0  0  0  0  0  0  0  0  0
    0.0857   -0.4639    1.4430 C   0  0  0  0  0  0  0  0  0  0  0  0
    1.4458   -0.5209    0.8074 C   0  0  0  0  0  0  0  0  0  0  0  0
    1.7281   -0.8011   -0.4732 C   0  0  0  0  0  0  0  0  0  0  0  0
    0.7416   -1.1945   -1.5365 C   0  0  0  0  0  0  0  0  0  0  0  0
   -0.6031   -1.6990   -1.0244 C   0  0  0  0  0  0  0  0  0  0  0  0
   -1.4502   -0.6359   -0.6170 O   0  0  0  0  0  0  0  0  0  0  0  0
   -0.2332    3.3067   -0.2344 H   0  0  0  0  0  0  0  0  0  0  0  0
    0.4386    1.8081   -0.8882 H   0  0  0  0  0  0  0  0  0  0  0  0
    0.7258    2.2598    0.8146 H   0  0  0  0  0  0  0  0  0  0  0  0
   -2.0515    1.7321   -0.3563 H   0  0  0  0  0  0  0  0  0  0  0  0
   -1.6307    1.9874    1.3473 H   0  0  0  0  0  0  0  0  0  0  0  0
   -2.0016   -0.2486    1.2619 H   0  0  0  0  0  0  0  0  0  0  0  0
    0.1583    0.1832    2.3238 H   0  0  0  0  0  0  0  0  0  0  0  0
   -0.1167   -1.4642    1.8498 H   0  0  0  0  0  0  0  0  0  0  0  0
    2.2748   -0.3106    1.4830 H   0  0  0  0  0  0  0  0  0  0  0  0
    2.7660   -0.7626   -0.7900 H   0  0  0  0  0  0  0  0  0  0  0  0
    0.5857   -0.3396   -2.2087 H   0  0  0  0  0  0  0  0  0  0  0  0
    1.1970   -1.9863   -2.1323 H   0  0  0  0  0  0  0  0  0  0  0  0
   -1.1176   -2.1765   -1.8620 H   0  0  0  0  0  0  0  0  0  0  0  0
   -0.5189   -2.4711   -0.2401 H   0  0  0  0  0  0  0  0  0  0  0  0
  5 18  1  0
  4 16  1  0
  2 13  1  0
  3 15  1  0
  1 11  1  0
  4  5  1  0
  5  6  2  0
  3  4  1  0
  4 17  1  0
  6 19  1  0
  2  3  1  0
  3  9  1  0
  1  2  1  0
  2 14  1  0
  6  7  1  0
  1 10  1  0
  1 12  1  0
  8 22  1  0
  8  9  1  0
  7  8  1  0
  8 23  1  0
  7 20  1  0
  7 21  1  0
M  END
$$$$

     RDKit          3D

 20 20  0  0  0  0  0  0  0  0999 V2000
   -1.7663   -0.2540   -2.0190 C   0  0  0  0  0  0  0  0  0  0  0  0
   -1.3994   -1.1994   -1.0230 O   0  0  0  0  0  0  0  0  0  0  0  0
   -0.0747   -0.9907   -0.5083 C   0  0  0  0  0  0  0  0  0  0  0  0
   -0.0968    0.0368    0.6002 C   0  0  0  0  0  0  0  0  0  0  0  0
    0.6064    1.4365    0.2754 C   0  0  0  0  0  0  0  0  0  0  0  0
    1.0709    0.4593    1.2935 N   0  0  0  0  0  0  0  0  0  0  0  0
    2.3109   -0.1929    0.9280 C   0  0  0  0  0  0  0  0  0  0  0  0
   -1.3180    0.0520    1.4752 C   0  0  0  0  0  0  0  0  0  0  0  0
   -1.3462   -0.3963    2.6233 O   0  0  0  0  0  0  0  0  0  0  0  0
   -2.8200   -0.4430   -2.2918 H   0  0  0  0  0  0  0  0  0  0  0  0
   -1.1442   -0.3822   -2.9214 H   0  0  0  0  0  0  0  0  0  0  0  0
   -1.6707    0.7668   -1.6308 H   0  0  0  0  0  0  0  0  0  0  0  0
    0.2655   -1.9486   -0.1024 H   0  0  0  0  0  0  0  0  0  0  0  0
    0.6151   -0.7218   -1.3327 H   0  0  0  0  0  0  0  0  0  0  0  0
    1.2636    2.2456    0.6809 H   0  0  0  0  0  0  0  0  0  0  0  0
   -0.2479    2.1625    0.3752 H   0  0  0  0  0  0  0  0  0  0  0  0
    3.1463    0.3402    1.3832 H   0  0  0  0  0  0  0  0  0  0  0  0
    2.5000   -0.2419   -0.1500 H   0  0  0  0  0  0  0  0  0  0  0  0
    2.3292   -1.2148    1.3242 H   0  0  0  0  0  0  0  0  0  0  0  0
   -2.2236    0.4860    1.0202 H   0  0  0  0  0  0  0  0  0  0  0  0
  8  9  2  0
  1 10  1  0
  1 12  1  0
  8 20  1  0
  4  8  1  0
  1 11  1  0
  1  2  1  0
  3 13  1  0
  3  4  1  0
  4  6  1  0
  4  5  1  0
  2  3  1  0
  3 14  1  0
  5  6  1  0
  6  7  1  0
  5 15  1  0
  5 16  1  0
  7 18  1  0
  7 19  1  0
  7 17  1  0
M  END
$$$$

     RDKit          3D

 17 17  0  0  0  0  0  0  0  0999 V2000
    1.5688   -1.9912   -0.4451 C   0  0  0  0  0  0  0  0  0  0  0  0
    0.9111   -0.7887    0.0455 N   0  0  0  0  0  0  0  0  0  0  0  0
    1.2980   -0.2055    1.2289 C   0  0  0  0  0  0  0  0  0  0  0  0
    0.7614    0.8212    1.7960 N   0  0  0  0  0  0  0  0  0  0  0  0
   -0.3133    1.4258    1.1766 C   0  0  0  0  0  0  0  0  0  0  0  0
   -0.8441    2.4405    1.6159 O   0  0  0  0  0  0  0  0  0  0  0  0
   -0.8504    0.8033   -0.0806 C   0  0  0  0  0  0  0  0  0  0  0  0
   -2.0602    1.4198   -0.6976 C   0  0  0  0  0  0  0  0  0  0  0  0
   -0.2038   -0.2626   -0.5695 C   0  0  0  0  0  0  0  0  0  0  0  0
    2.6020   -2.0564   -0.0866 H   0  0  0  0  0  0  0  0  0  0  0  0
    1.0307   -2.8826   -0.1040 H   0  0  0  0  0  0  0  0  0  0  0  0
    1.6015   -1.9997   -1.5419 H   0  0  0  0  0  0  0  0  0  0  0  0
    2.1578   -0.7013    1.7110 H   0  0  0  0  0  0  0  0  0  0  0  0
   -2.3666    0.8901   -1.6080 H   0  0  0  0  0  0  0  0  0  0  0  0
   -2.9024    1.3932    0.0028 H   0  0  0  0  0  0  0  0  0  0  0  0
   -1.8651    2.4635   -0.9695 H   0  0  0  0  0  0  0  0  0  0  0  0
   -0.5254   -0.7696   -1.4742 H   0  0  0  0  0  0  0  0  0  0  0  0
  3 13  1  0
  3  4  2  0
  4  5  1  0
  2  3  1  0
  1 11  1  0
  5  6  2  0
  5  7  1  0
  1  2  1  0
  2  9  1  0
  1 10  1  0
  1 12  1  0
  7  9  2  0
  9 17  1  0
  7  8  1  0
  8 14  1  0
  8 16  1  0
  8 15  1  0
M  END
$$$$

     RDKit          3D

 20 21  0  0  0  0  0  0  0  0999 V2000
   -2.0734    0.7486   -0.6149 C   0  0  0  0  0  0  0  0  0  0  0  0
   -0.9345    0.1739    0.1488 C   0  0  0  0  0  0  0  0  0  0  0  0
   -1.0113   -0.4310    1.3511 C   0  0  0  0  0  0  0  0  0  0  0  0
    0.3272   -1.0161    1.7254 C   0  0  0  0  0  0  0  0  0  0  0  0
    1.2474   -0.6812    0.5717 C   0  0  0  0  0  0  0  0  0  0  0  0
    1.0025   -1.2158   -0.8148 C   0  0  0  0  0  0  0  0  0  0  0  0
    0.4462    0.1411   -0.4281 C   0  0  0  0  0  0  0  0  0  0  0  0
    1.0464    1.4043   -0.9682 C   0  0  0  0  0  0  0  0  0  0  0  0
   -1.9852    1.8397   -0.6752 H   0  0  0  0  0  0  0  0  0  0  0  0
   -2.1062    0.3401   -1.6344 H   0  0  0  0  0  0  0  0  0  0  0  0
   -3.0283    0.5064   -0.1406 H   0  0  0  0  0  0  0  0  0  0  0  0
   -1.9143   -0.5765    1.9262 H   0  0  0  0  0  0  0  0  0  0  0  0
    0.2660   -2.1011    1.8767 H   0  0  0  0  0  0  0  0  0  0  0  0
    0.6926   -0.5481    2.6443 H   0  0  0  0  0  0  0  0  0  0  0  0
    2.2876   -0.5240    0.8433 H   0  0  0  0  0  0  0  0  0  0  0  0
    1.8314   -1.2478   -1.5058 H   0  0  0  0  0  0  0  0  0  0  0  0
    0.3026   -2.0190   -0.9707 H   0  0  0  0  0  0  0  0  0  0  0  0
    0.3868    1.8545   -1.7160 H   0  0  0  0  0  0  0  0  0  0  0  0
    2.0073    1.2156   -1.4482 H   0  0  0  0  0  0  0  0  0  0  0  0
    1.2092    2.1365   -0.1708 H   0  0  0  0  0  0  0  0  0  0  0  0
  3 12  1  0
  4 14  1  0
  4 13  1  0
  3  4  1  0
  2  3  2  0
  1 10  1  0
  4  5  1  0
  1  2  1  0
  2  7  1  0
  1 11  1  0
  1  9  1  0
  5  7  1  0
  5 15  1  0
  5  6  1  0
  6 17  1  0
  6  7  1  0
  7  8  1  0
  6 16  1  0
  8 19  1  0
  8 18  1  0
  8 20  1  0
M  END
$$$$

     RDKit          3D

 17 18  0  0  0  0  0  0  0  0999 V2000
   -0.6555   -2.5073   -1.1493 O   0  0  0  0  0  0  0  0  0  0  0  0
   -0.2130   -1.2717   -1.5130 C   0  0  0  0  0  0  0  0  0  0  0  0
   -0.5570   -0.7577   -2.5903 O   0  0  0  0  0  0  0  0  0  0  0  0
    0.6748   -0.5895   -0.3952 C   0  0  0  0  0  0  0  0  0  0  0  0
    0.3721   -0.9358    0.9782 N   0  0  0  0  0  0  0  0  0  0  0  0
    1.2828   -0.9677    1.4649 H   0  0  0  0  0  0  0  0  0  0  0  0
   -1.4125   -2.7314   -1.7145 H   0  0  0  0  0  0  0  0  0  0  0  0
   -0.3500    0.1936    1.6308 C   0  0  0  0  0  0  0  0  0  0  0  0
   -0.1200    1.4013    0.7320 C   0  0  0  0  0  0  0  0  0  0  0  0
   -0.7860    1.5738   -0.6151 N   0  0  0  0  0  0  0  0  0  0  0  0
    0.6219    0.9258   -0.4471 C   0  0  0  0  0  0  0  0  0  0  0  0
    1.7014   -0.9258   -0.6873 H   0  0  0  0  0  0  0  0  0  0  0  0
   -1.4609   -0.0335    1.7151 H   0  0  0  0  0  0  0  0  0  0  0  0
   -0.1816    0.1798    2.6940 H   0  0  0  0  0  0  0  0  0  0  0  0
    0.2531    2.3334    1.1710 H   0  0  0  0  0  0  0  0  0  0  0  0
   -0.7088    2.6061   -0.8025 H   0  0  0  0  0  0  0  0  0  0  0  0
    1.5391    1.5068   -0.4716 H   0  0  0  0  0  0  0  0  0  0  0  0
  5  6  1  0
  4 12  1  0
  4  5  1  0
  5  8  1  0
  2  3  2  0
  8 13  1  0
  2  4  1  0
  4 11  1  0
  1  2  1  0
  1  7  1  0
  8 14  1  0
  8  9  1  0
 11 17  1  0
  9 11  1  0
 10 11  1  0
  9 15  1  0
  9 10  1  0
 10 16  1  0
M  END
$$$$

     RDKit          3D

 17 18  0  0  0  0  0  0  0  0999 V2000
   -2.1117    2.3600   -1.3630 C   0  0  0  0  0  0  0  0  0  0  0  0
   -1.5489    1.2701   -0.5712 C   0  0  0  0  0  0  0  0  0  0  0  0
   -1.0723    0.3400    0.0257 C   0  0  0  0  0  0  0  0  0  0  0  0
   -0.4717   -0.8165    0.6637 C   0  0  0  0  0  0  0  0  0  0  0  0
   -0.2446   -1.8573   -0.3252 O   0  0  0  0  0  0  0  0  0  0  0  0
    1.1641   -1.9108   -0.0275 C   0  0  0  0  0  0  0  0  0  0  0  0
    2.0064   -0.6961   -0.2584 C   0  0  0  0  0  0  0  0  0  0  0  0
    1.0063   -0.7145    0.8492 C   0  0  0  0  0  0  0  0  0  0  0  0
    1.5177   -0.8414    2.1859 O   0  0  0  0  0  0  0  0  0  0  0  0
   -3.0833    2.0705   -1.7774 H   0  0  0  0  0  0  0  0  0  0  0  0
   -2.2420    3.2671   -0.7702 H   0  0  0  0  0  0  0  0  0  0  0  0
   -1.4476    2.6098   -2.1947 H   0  0  0  0  0  0  0  0  0  0  0  0
   -1.0185   -1.1883    1.5398 H   0  0  0  0  0  0  0  0  0  0  0  0
    1.6087   -2.8237    0.3707 H   0  0  0  0  0  0  0  0  0  0  0  0
    1.7808   -0.1046   -1.1326 H   0  0  0  0  0  0  0  0  0  0  0  0
    3.0649   -0.7540   -0.0156 H   0  0  0  0  0  0  0  0  0  0  0  0
    1.0917   -0.2103    2.8007 H   0  0  0  0  0  0  0  0  0  0  0  0
  9 17  1  0
  8  9  1  0
  1 10  1  0
  4 13  1  0
  1 11  1  0
  4  8  1  0
  7  8  1  0
  6  8  1  0
  1  2  1  0
  1 12  1  0
  2  3  3  0
  3  4  1  0
  4  5  1  0
  7 15  1  0
  6  7  1  0
  7 16  1  0
  5  6  1  0
  6 14  1  0
M  END
$$$$

     RDKit          3D

 25 25  0  0  0  0  0  0  0  0999 V2000
    2.3126   -0.0497    0.7707 C   0  0  0  0  0  0  0  0  0  0  0  0
    0.8490   -0.3455    1.1096 C   0  0  0  0  0  0  0  0  0  0  0  0
    0.4755   -1.8226    0.9048 C   0  0  0  0  0  0  0  0  0  0  0  0
    1.0027   -2.3758   -0.2953 O   0  0  0  0  0  0  0  0  0  0  0  0
   -0.0767    0.7096    0.5413 C   0  0  0  0  0  0  0  0  0  0  0  0
   -1.4131    0.3806   -0.0863 C   0  0  0  0  0  0  0  0  0  0  0  0
   -2.6287    1.1260    0.3412 C   0  0  0  0  0  0  0  0  0  0  0  0
   -0.3436    1.0595   -0.9152 C   0  0  0  0  0  0  0  0  0  0  0  0
    0.2245    0.3665   -2.1079 C   0  0  0  0  0  0  0  0  0  0  0  0
    2.4656    0.1391   -0.2967 H   0  0  0  0  0  0  0  0  0  0  0  0
    2.6520    0.8532    1.3050 H   0  0  0  0  0  0  0  0  0  0  0  0
    2.9708   -0.8780    1.0827 H   0  0  0  0  0  0  0  0  0  0  0  0
    0.7561   -0.2080    2.1970 H   0  0  0  0  0  0  0  0  0  0  0  0
   -0.6046   -2.0024    0.9432 H   0  0  0  0  0  0  0  0  0  0  0  0
    0.9003   -2.4094    1.7343 H   0  0  0  0  0  0  0  0  0  0  0  0
    0.3810   -2.1564   -1.0107 H   0  0  0  0  0  0  0  0  0  0  0  0
   -0.0336    1.5863    1.1916 H   0  0  0  0  0  0  0  0  0  0  0  0
   -1.6600   -0.6315   -0.3434 H   0  0  0  0  0  0  0  0  0  0  0  0
   -2.5554    1.4253    1.3936 H   0  0  0  0  0  0  0  0  0  0  0  0
   -3.5190    0.5006    0.2483 H   0  0  0  0  0  0  0  0  0  0  0  0
   -2.7903    2.0246   -0.2600 H   0  0  0  0  0  0  0  0  0  0  0  0
   -0.4947    2.1110   -1.1486 H   0  0  0  0  0  0  0  0  0  0  0  0
   -0.5659   -0.1253   -2.6851 H   0  0  0  0  0  0  0  0  0  0  0  0
    0.7127    1.0934   -2.7632 H   0  0  0  0  0  0  0  0  0  0  0  0
    0.9829   -0.3709   -1.8512 H   0  0  0  0  0  0  0  0  0  0  0  0
  7 21  1  0
  7 20  1  0
  7 19  1  0
  6  7  1  0
  1 11  1  0
  6 18  1  0
  5  6  1  0
  6  8  1  0
  1 10  1  0
  1 12  1  0
  1  2  1  0
  2 13  1  0
  9 23  1  0
  9 25  1  0
  5  8  1  0
  2  5  1  0
  5 17  1  0
  8  9  1  0
  8 22  1  0
  2  3  1  0
  9 24  1  0
  3  4  1  0
  3 15  1  0
  3 14  1  0
  4 16  1  0
M  END
$$$$

     RDKit          3D

 14 13  0  0  0  0  0  0  0  0999 V2000
    0.9256   -0.9410   -2.9859 O   0  0  0  0  0  0  0  0  0  0  0  0
    0.5293   -0.1360   -1.8823 C   0  0  0  0  0  0  0  0  0  0  0  0
    0.1415   -1.0133   -0.6994 C   0  0  0  0  0  0  0  0  0  0  0  0
   -0.2271   -0.2125    0.4742 C   0  0  0  0  0  0  0  0  0  0  0  0
   -0.5287    0.4316    1.4441 C   0  0  0  0  0  0  0  0  0  0  0  0
   -0.8952    1.2022    2.6259 C   0  0  0  0  0  0  0  0  0  0  0  0
   -2.2375    1.3307    2.7207 F   0  0  0  0  0  0  0  0  0  0  0  0
   -0.3573    2.4399    2.5797 F   0  0  0  0  0  0  0  0  0  0  0  0
   -0.4518    0.5930    3.7473 F   0  0  0  0  0  0  0  0  0  0  0  0
    1.7748   -1.3628   -2.7529 H   0  0  0  0  0  0  0  0  0  0  0  0
   -0.3157    0.4822   -2.2009 H   0  0  0  0  0  0  0  0  0  0  0  0
    1.3566    0.5353   -1.6308 H   0  0  0  0  0  0  0  0  0  0  0  0
    0.9739   -1.6821   -0.4510 H   0  0  0  0  0  0  0  0  0  0  0  0
   -0.6885   -1.6672   -0.9887 H   0  0  0  0  0  0  0  0  0  0  0  0
  6  8  1  0
  2 11  1  0
  3 14  1  0
  5  6  1  0
  6  7  1  0
  6  9  1  0
  4  5  3  0
  1  2  1  0
  2  3  1  0
  2 12  1  0
  3  4  1  0
  1 10  1  0
  3 13  1  0
M  END
$$$$

     RDKit          3D

 16 17  0  0  0  0  0  0  0  0999 V2000
    1.0590   -0.8997   -1.4976 C   0  0  0  0  0  0  0  0  0  0  0  0
    0.4184   -0.7850   -0.1226 C   0  0  0  0  0  0  0  0  0  0  0  0
   -1.0679   -0.5411   -0.2688 C   0  0  0  0  0  0  0  0  0  0  0  0
   -1.8992   -1.3766   -0.5573 O   0  0  0  0  0  0  0  0  0  0  0  0
   -1.3656    0.8549    0.1958 C   0  0  0  0  0  0  0  0  0  0  0  0
   -1.4091    0.9710    1.6099 N   0  0  0  0  0  0  0  0  0  0  0  0
   -0.1150    1.4413    0.8444 C   0  0  0  0  0  0  0  0  0  0  0  0
    0.9503    0.4270    0.6192 C   0  0  0  0  0  0  0  0  0  0  0  0
    2.1140    0.6660    0.8786 O   0  0  0  0  0  0  0  0  0  0  0  0
    2.1365   -1.0875   -1.4550 H   0  0  0  0  0  0  0  0  0  0  0  0
    0.9206    0.0017   -2.0892 H   0  0  0  0  0  0  0  0  0  0  0  0
    0.6083   -1.7296   -2.0414 H   0  0  0  0  0  0  0  0  0  0  0  0
    0.5923   -1.6898    0.4778 H   0  0  0  0  0  0  0  0  0  0  0  0
   -2.0368    1.4578   -0.4120 H   0  0  0  0  0  0  0  0  0  0  0  0
   -1.1100    0.1355    2.1355 H   0  0  0  0  0  0  0  0  0  0  0  0
    0.2041    2.1543    1.6825 H   0  0  0  0  0  0  0  0  0  0  0  0
  3  4  2  0
  5 14  1  0
  3  5  1  0
  2  3  1  0
  1 11  1  0
  5  6  1  0
  5  7  1  0
  2 13  1  0
  1  2  1  0
  2  8  1  0
  1 10  1  0
  1 12  1  0
  6 15  1  0
  6  7  1  0
  7  8  1  0
  7 16  1  0
  8  9  2  0
M  END
$$$$

     RDKit          3D

 13 13  0  0  0  0  0  0  0  0999 V2000
   -0.7788    1.5154   -1.3612 O   0  0  0  0  0  0  0  0  0  0  0  0
   -0.4277    1.6358   -0.1886 C   0  0  0  0  0  0  0  0  0  0  0  0
    0.3536    0.6385    0.6678 C   0  0  0  0  0  0  0  0  0  0  0  0
    0.1849   -0.8723    0.5473 C   0  0  0  0  0  0  0  0  0  0  0  0
    1.4619   -0.9704   -0.1447 O   0  0  0  0  0  0  0  0  0  0  0  0
    1.6969    0.3566   -0.0001 C   0  0  0  0  0  0  0  0  0  0  0  0
    2.6864    0.9870   -0.2937 O   0  0  0  0  0  0  0  0  0  0  0  0
   -0.8817   -1.3994   -0.2694 C   0  0  0  0  0  0  0  0  0  0  0  0
   -1.7677   -1.8391   -0.9505 C   0  0  0  0  0  0  0  0  0  0  0  0
   -0.6984    2.5636    0.3439 H   0  0  0  0  0  0  0  0  0  0  0  0
    0.4674    0.9840    1.7017 H   0  0  0  0  0  0  0  0  0  0  0  0
    0.2490   -1.3794    1.5191 H   0  0  0  0  0  0  0  0  0  0  0  0
   -2.5459   -2.2203   -1.5715 H   0  0  0  0  0  0  0  0  0  0  0  0
  9 13  1  0
  8  9  3  0
  4 12  1  0
  4  8  1  0
  4  5  1  0
  3  4  1  0
  1  2  2  0
  5  6  1  0
  2  3  1  0
  2 10  1  0
  3 11  1  0
  3  6  1  0
  6  7  2  0
M  END
$$$$

     RDKit          3D

 25 25  0  0  0  0  0  0  0  0999 V2000
    0.4274    3.5301   -0.5505 C   0  0  0  0  0  0  0  0  0  0  0  0
    0.1656    2.0359   -0.4470 C   0  0  0  0  0  0  0  0  0  0  0  0
    0.9538    1.3896    0.6938 C   0  0  0  0  0  0  0  0  0  0  0  0
    0.9411   -0.1492    0.6680 C   0  0  0  0  0  0  0  0  0  0  0  0
   -0.4439   -0.8066    0.7848 C   0  0  0  0  0  0  0  0  0  0  0  0
   -0.3618   -2.3201    0.9651 C   0  0  0  0  0  0  0  0  0  0  0  0
   -0.8166   -2.9096   -0.3537 C   0  0  0  0  0  0  0  0  0  0  0  0
   -0.9932   -1.7223   -1.2711 C   0  0  0  0  0  0  0  0  0  0  0  0
   -1.2038   -0.5977   -0.4111 O   0  0  0  0  0  0  0  0  0  0  0  0
   -0.3207    4.0001   -1.2045 H   0  0  0  0  0  0  0  0  0  0  0  0
    0.3970    4.0292    0.4188 H   0  0  0  0  0  0  0  0  0  0  0  0
    1.4166    3.7245   -0.9966 H   0  0  0  0  0  0  0  0  0  0  0  0
    0.4255    1.5585   -1.4051 H   0  0  0  0  0  0  0  0  0  0  0  0
   -0.9024    1.8789   -0.2994 H   0  0  0  0  0  0  0  0  0  0  0  0
    2.0016    1.7174    0.6585 H   0  0  0  0  0  0  0  0  0  0  0  0
    0.5429    1.7360    1.6550 H   0  0  0  0  0  0  0  0  0  0  0  0
    1.5612   -0.4960    1.4967 H   0  0  0  0  0  0  0  0  0  0  0  0
    1.4350   -0.4737   -0.2526 H   0  0  0  0  0  0  0  0  0  0  0  0
   -0.9838   -0.3551    1.6233 H   0  0  0  0  0  0  0  0  0  0  0  0
   -1.0455   -2.6461    1.7612 H   0  0  0  0  0  0  0  0  0  0  0  0
    0.6401   -2.6642    1.2504 H   0  0  0  0  0  0  0  0  0  0  0  0
   -1.7760   -3.4202   -0.2153 H   0  0  0  0  0  0  0  0  0  0  0  0
   -0.1200   -3.6554   -0.7557 H   0  0  0  0  0  0  0  0  0  0  0  0
   -0.0909   -1.5408   -1.8656 H   0  0  0  0  0  0  0  0  0  0  0  0
   -1.8490   -1.8434   -1.9474 H   0  0  0  0  0  0  0  0  0  0  0  0
  2 14  1  0
  1 11  1  0
  1 10  1  0
  1  2  1  0
  1 12  1  0
  2 13  1  0
  2  3  1  0
  4 18  1  0
  3 15  1  0
  3  4  1  0
  3 16  1  0
  4 17  1  0
  4  5  1  0
  6 21  1  0
  8 25  1  0
  5  9  1  0
  8  9  1  0
  5  6  1  0
  5 19  1  0
  6 20  1  0
  6  7  1  0
  7  8  1  0
  8 24  1  0
  7 23  1  0
  7 22  1  0
M  END
$$$$

     RDKit          3D

 20 20  0  0  0  0  0  0  0  0999 V2000
   -1.8175    0.0803    0.2110 C   0  0  0  0  0  0  0  0  0  0  0  0
   -1.3717    0.6317   -1.1193 C   0  0  0  0  0  0  0  0  0  0  0  0
    0.0664    1.0597   -1.2549 C   0  0  0  0  0  0  0  0  0  0  0  0
    1.0060    0.0177   -1.6771 N   0  0  0  0  0  0  0  0  0  0  0  0
    1.3120    0.7059   -0.4348 C   0  0  0  0  0  0  0  0  0  0  0  0
    1.3183    0.0064    0.8934 C   0  0  0  0  0  0  0  0  0  0  0  0
    1.1929   -1.4192    0.7567 O   0  0  0  0  0  0  0  0  0  0  0  0
    0.5209   -2.0553    1.7484 C   0  0  0  0  0  0  0  0  0  0  0  0
    0.4962   -3.2671    1.9002 O   0  0  0  0  0  0  0  0  0  0  0  0
   -2.9076    0.1136    0.2760 H   0  0  0  0  0  0  0  0  0  0  0  0
   -1.4474    0.6700    1.0638 H   0  0  0  0  0  0  0  0  0  0  0  0
   -1.5194   -0.9697    0.3025 H   0  0  0  0  0  0  0  0  0  0  0  0
   -1.9787    1.5191   -1.3519 H   0  0  0  0  0  0  0  0  0  0  0  0
   -1.6038   -0.1007   -1.8999 H   0  0  0  0  0  0  0  0  0  0  0  0
    0.1274    1.9800   -1.8335 H   0  0  0  0  0  0  0  0  0  0  0  0
    1.6086    0.3358   -2.4393 H   0  0  0  0  0  0  0  0  0  0  0  0
    2.1210    1.4394   -0.4650 H   0  0  0  0  0  0  0  0  0  0  0  0
    2.3135    0.1593    1.3480 H   0  0  0  0  0  0  0  0  0  0  0  0
    0.5938    0.4576    1.5822 H   0  0  0  0  0  0  0  0  0  0  0  0
   -0.0309   -1.3643    2.3935 H   0  0  0  0  0  0  0  0  0  0  0  0
  5 17  1  0
  3 15  1  0
  4 16  1  0
  3  5  1  0
  4  5  1  0
  5  6  1  0
  3  4  1  0
  2  3  1  0
  6 19  1  0
  6  7  1  0
  7  8  1  0
  1 11  1  0
  6 18  1  0
  2 14  1  0
  8  9  2  0
  1  2  1  0
  2 13  1  0
  8 20  1  0
  1 10  1  0
  1 12  1  0
M  END
$$$$

     RDKit          3D

 17 17  0  0  0  0  0  0  0  0999 V2000
   -0.5436   -1.0595    2.2585 O   0  0  0  0  0  0  0  0  0  0  0  0
    0.3919   -1.4613    1.2664 C   0  0  0  0  0  0  0  0  0  0  0  0
    0.4169   -0.4344    0.1749 C   0  0  0  0  0  0  0  0  0  0  0  0
   -0.8463   -0.3140   -0.6423 C   0  0  0  0  0  0  0  0  0  0  0  0
   -0.6074    0.3129   -1.9150 O   0  0  0  0  0  0  0  0  0  0  0  0
   -1.0652    1.5720   -2.0818 C   0  0  0  0  0  0  0  0  0  0  0  0
   -0.9656    2.2017   -3.1250 O   0  0  0  0  0  0  0  0  0  0  0  0
    1.3928    0.7271    0.2748 C   0  0  0  0  0  0  0  0  0  0  0  0
    1.6489   -0.4104   -0.5690 O   0  0  0  0  0  0  0  0  0  0  0  0
   -0.0644   -0.5071    2.8971 H   0  0  0  0  0  0  0  0  0  0  0  0
    1.3698   -1.5881    1.7444 H   0  0  0  0  0  0  0  0  0  0  0  0
    0.0804   -2.4335    0.8733 H   0  0  0  0  0  0  0  0  0  0  0  0
   -1.6086    0.2202   -0.0646 H   0  0  0  0  0  0  0  0  0  0  0  0
   -1.2410   -1.3121   -0.8601 H   0  0  0  0  0  0  0  0  0  0  0  0
   -1.5365    1.9899   -1.1770 H   0  0  0  0  0  0  0  0  0  0  0  0
    1.1709    1.6662   -0.2191 H   0  0  0  0  0  0  0  0  0  0  0  0
    2.0069    0.8305    1.1644 H   0  0  0  0  0  0  0  0  0  0  0  0
  4 13  1  0
  4  5  1  0
  5  6  1  0
  4 14  1  0
  3  4  1  0
  2 11  1  0
  6  7  2  0
  6 15  1  0
  1 10  1  0
  2  3  1  0
  3  8  1  0
  3  9  1  0
  1  2  1  0
  2 12  1  0
  8 16  1  0
  8 17  1  0
  8  9  1  0
M  END
$$$$

     RDKit          3D

 16 16  0  0  0  0  0  0  0  0999 V2000
    1.8534   -1.7062    0.7728 N   0  0  0  0  0  0  0  0  0  0  0  0
    1.1670   -1.3386   -0.4384 C   0  0  0  0  0  0  0  0  0  0  0  0
   -0.1491   -1.8600   -0.4437 O   0  0  0  0  0  0  0  0  0  0  0  0
   -1.0965   -0.8654   -0.7634 C   0  0  0  0  0  0  0  0  0  0  0  0
   -1.4857    0.0845    0.3573 C   0  0  0  0  0  0  0  0  0  0  0  0
   -2.6196    0.1323    0.8211 O   0  0  0  0  0  0  0  0  0  0  0  0
   -0.4286    0.9799    0.8833 C   0  0  0  0  0  0  0  0  0  0  0  0
    0.4019    1.8690   -0.0118 C   0  0  0  0  0  0  0  0  0  0  0  0
   -0.7035    2.3885    0.7321 O   0  0  0  0  0  0  0  0  0  0  0  0
    2.4956   -0.9603    1.0502 H   0  0  0  0  0  0  0  0  0  0  0  0
    1.7060   -1.7039   -1.3266 H   0  0  0  0  0  0  0  0  0  0  0  0
   -2.0138   -1.3905   -1.0621 H   0  0  0  0  0  0  0  0  0  0  0  0
   -0.7867   -0.2846   -1.6400 H   0  0  0  0  0  0  0  0  0  0  0  0
   -0.0242    0.6884    1.8437 H   0  0  0  0  0  0  0  0  0  0  0  0
    1.3923    2.1457    0.3123 H   0  0  0  0  0  0  0  0  0  0  0  0
    0.2914    1.8214   -1.0868 H   0  0  0  0  0  0  0  0  0  0  0  0
  4 13  1  0
  4 12  1  0
  4  5  1  0
  3  4  1  0
  5  6  2  0
  5  7  1  0
  2  3  1  0
  2 11  1  0
  1  2  1  0
  7 14  1  0
  7  9  1  0
  7  8  1  0
  8  9  1  0
  1 10  1  0
  8 16  1  0
  8 15  1  0
M  END
$$$$

     RDKit          3D

 21 22  0  0  0  0  0  0  0  0999 V2000
    2.6196   -1.4212    1.6766 O   0  0  0  0  0  0  0  0  0  0  0  0
    1.9750   -0.5317    0.7699 C   0  0  0  0  0  0  0  0  0  0  0  0
    0.7257    0.2205    1.2219 C   0  0  0  0  0  0  0  0  0  0  0  0
    0.1172   -0.0919   -0.2403 C   0  0  0  0  0  0  0  0  0  0  0  0
    1.1598   -1.2063   -0.3658 C   0  0  0  0  0  0  0  0  0  0  0  0
   -1.3655   -0.3862   -0.1131 C   0  0  0  0  0  0  0  0  0  0  0  0
   -1.9869    0.9762   -0.4811 C   0  0  0  0  0  0  0  0  0  0  0  0
   -1.1397    1.3685   -1.6591 C   0  0  0  0  0  0  0  0  0  0  0  0
    0.2358    1.0124   -1.2026 O   0  0  0  0  0  0  0  0  0  0  0  0
    2.0881   -1.5346    2.4926 H   0  0  0  0  0  0  0  0  0  0  0  0
    2.7096    0.1623    0.3319 H   0  0  0  0  0  0  0  0  0  0  0  0
    0.2037   -0.2469    2.0822 H   0  0  0  0  0  0  0  0  0  0  0  0
    0.9411    1.2715    1.4543 H   0  0  0  0  0  0  0  0  0  0  0  0
    0.7647   -2.1995   -0.0635 H   0  0  0  0  0  0  0  0  0  0  0  0
    1.6956   -1.2532   -1.3054 H   0  0  0  0  0  0  0  0  0  0  0  0
   -1.7220   -0.7007    0.8980 H   0  0  0  0  0  0  0  0  0  0  0  0
   -1.6478   -1.1778   -0.7996 H   0  0  0  0  0  0  0  0  0  0  0  0
   -3.0418    0.9140   -0.6285 H   0  0  0  0  0  0  0  0  0  0  0  0
   -1.8340    1.6039    0.3730 H   0  0  0  0  0  0  0  0  0  0  0  0
   -1.1907    2.4554   -1.8712 H   0  0  0  0  0  0  0  0  0  0  0  0
   -1.3073    0.7653   -2.5704 H   0  0  0  0  0  0  0  0  0  0  0  0
  1 10  1  0
  1  2  1  0
  5 15  1  0
  2 11  1  0
  5 14  1  0
  2  5  1  0
  2  3  1  0
  4  5  1  0
  6 16  1  0
  3  4  1  0
  3 13  1  0
  3 12  1  0
  4  6  1  0
  4  9  1  0
  6 17  1  0
  6  7  1  0
  8  9  1  0
  8 20  1  0
  7  8  1  0
  8 21  1  0
  7 18  1  0
  7 19  1  0
M  END
$$$$

     RDKit          3D

 17 16  0  0  0  0  0  0  0  0999 V2000
   -2.3694    0.8749   -1.2395 O   0  0  0  0  0  0  0  0  0  0  0  0
   -1.1027    1.4941   -1.0656 C   0  0  0  0  0  0  0  0  0  0  0  0
   -0.0529    0.4318   -0.7440 C   0  0  0  0  0  0  0  0  0  0  0  0
   -0.3624   -0.3028    0.5739 C   0  0  0  0  0  0  0  0  0  0  0  0
   -0.8339   -1.6277    0.3353 O   0  0  0  0  0  0  0  0  0  0  0  0
    0.8591   -0.2648    1.5011 C   0  0  0  0  0  0  0  0  0  0  0  0
    0.9967    0.5412    2.4177 O   0  0  0  0  0  0  0  0  0  0  0  0
    1.9345   -1.1894    1.2065 C   0  0  0  0  0  0  0  0  0  0  0  0
    2.8418   -1.9447    0.9813 C   0  0  0  0  0  0  0  0  0  0  0  0
   -3.0523    1.5478   -1.0576 H   0  0  0  0  0  0  0  0  0  0  0  0
   -1.1690    2.2352   -0.2581 H   0  0  0  0  0  0  0  0  0  0  0  0
   -0.8468    2.0164   -1.9982 H   0  0  0  0  0  0  0  0  0  0  0  0
    0.0061   -0.2855   -1.5771 H   0  0  0  0  0  0  0  0  0  0  0  0
    0.9169    0.9451   -0.6898 H   0  0  0  0  0  0  0  0  0  0  0  0
   -1.1653    0.2042    1.1203 H   0  0  0  0  0  0  0  0  0  0  0  0
   -0.2511   -2.0613   -0.3096 H   0  0  0  0  0  0  0  0  0  0  0  0
    3.6507   -2.6144    0.8033 H   0  0  0  0  0  0  0  0  0  0  0  0
  9 17  1  0
  8  9  3  0
  6  8  1  0
  3 14  1  0
  2 11  1  0
  4 15  1  0
  1 10  1  0
  1  2  1  0
  2  3  1  0
  3  4  1  0
  3 13  1  0
  4  6  1  0
  6  7  2  0
  2 12  1  0
  4  5  1  0
  5 16  1  0
M  END
$$$$

     RDKit          3D

 22 22  0  0  0  0  0  0  0  0999 V2000
    0.1538   -2.0344   -0.1805 C   0  0  0  0  0  0  0  0  0  0  0  0
   -0.9022   -1.2636   -0.8788 C   0  0  0  0  0  0  0  0  0  0  0  0
   -0.5791   -0.5429   -2.1587 C   0  0  0  0  0  0  0  0  0  0  0  0
   -0.9842    0.2585   -0.9377 C   0  0  0  0  0  0  0  0  0  0  0  0
    0.0110    1.2299   -0.3531 C   0  0  0  0  0  0  0  0  0  0  0  0
    0.4583    1.0248    1.0830 C   0  0  0  0  0  0  0  0  0  0  0  0
    1.8824    1.4398    1.4114 C   0  0  0  0  0  0  0  0  0  0  0  0
   -0.2755    0.6200    2.0744 N   0  0  0  0  0  0  0  0  0  0  0  0
   -1.6192    0.4198    1.7107 O   0  0  0  0  0  0  0  0  0  0  0  0
   -0.2576   -2.4513    0.7587 H   0  0  0  0  0  0  0  0  0  0  0  0
    1.0507   -1.4351    0.0753 H   0  0  0  0  0  0  0  0  0  0  0  0
    0.4765   -2.8853   -0.7937 H   0  0  0  0  0  0  0  0  0  0  0  0
   -1.8590   -1.7733   -0.8343 H   0  0  0  0  0  0  0  0  0  0  0  0
    0.4540   -0.5206   -2.4989 H   0  0  0  0  0  0  0  0  0  0  0  0
   -1.2985   -0.6419   -2.9659 H   0  0  0  0  0  0  0  0  0  0  0  0
   -1.9781    0.7062   -0.9811 H   0  0  0  0  0  0  0  0  0  0  0  0
   -0.4058    2.2338   -0.3989 H   0  0  0  0  0  0  0  0  0  0  0  0
    0.9076    1.2339   -0.9851 H   0  0  0  0  0  0  0  0  0  0  0  0
    2.3409    0.7061    2.0843 H   0  0  0  0  0  0  0  0  0  0  0  0
    2.4944    1.5279    0.4961 H   0  0  0  0  0  0  0  0  0  0  0  0
    1.8353    2.4053    1.9273 H   0  0  0  0  0  0  0  0  0  0  0  0
   -1.9056   -0.2577    2.3455 H   0  0  0  0  0  0  0  0  0  0  0  0
  1 11  1  0
  2 13  1  0
  3 14  1  0
  1  2  1  0
  1 12  1  0
  1 10  1  0
  2  3  1  0
  2  4  1  0
  3 15  1  0
  3  4  1  0
  4 16  1  0
  4  5  1  0
  5 17  1  0
  5 18  1  0
  5  6  1  0
  6  8  2  3
  6  7  1  0
  8  9  1  0
  7 19  1  0
  7 21  1  0
  7 20  1  0
  9 22  1  0
M  END
$$$$

     RDKit          3D

 15 16  0  0  0  0  0  0  0  0999 V2000
   -0.8251    1.6623    0.8676 O   0  0  0  0  0  0  0  0  0  0  0  0
    0.1455    0.6115    1.0701 C   0  0  0  0  0  0  0  0  0  0  0  0
    1.1516    0.2943   -0.0815 C   0  0  0  0  0  0  0  0  0  0  0  0
    0.3388    0.0910   -1.3546 C   0  0  0  0  0  0  0  0  0  0  0  0
   -0.7500   -0.8102   -0.7676 C   0  0  0  0  0  0  0  0  0  0  0  0
   -0.2399   -0.8493    0.6670 C   0  0  0  0  0  0  0  0  0  0  0  0
    1.2418   -1.0729    0.5413 O   0  0  0  0  0  0  0  0  0  0  0  0
   -1.4265    1.5950    1.6345 H   0  0  0  0  0  0  0  0  0  0  0  0
    0.6080    0.7031    2.0616 H   0  0  0  0  0  0  0  0  0  0  0  0
    2.1065    0.8224   -0.0939 H   0  0  0  0  0  0  0  0  0  0  0  0
   -0.0647    1.0245   -1.7554 H   0  0  0  0  0  0  0  0  0  0  0  0
    0.9149   -0.4164   -2.1340 H   0  0  0  0  0  0  0  0  0  0  0  0
   -0.7500   -1.7993   -1.2302 H   0  0  0  0  0  0  0  0  0  0  0  0
   -1.7475   -0.3716   -0.8476 H   0  0  0  0  0  0  0  0  0  0  0  0
   -0.7035   -1.4845    1.4225 H   0  0  0  0  0  0  0  0  0  0  0  0
  6 15  1  0
  2  9  1  0
  1  8  1  0
  1  2  1  0
  2  6  1  0
  2  3  1  0
  6  7  1  0
  5  6  1  0
  3  7  1  0
  5 14  1  0
  5 13  1  0
  4  5  1  0
  3 10  1  0
  3  4  1  0
  4 12  1  0
  4 11  1  0
M  END
$$$$

     RDKit          3D

 15 17  0  0  0  0  0  0  0  0999 V2000
    0.6850    1.1217   -1.8284 O   0  0  0  0  0  0  0  0  0  0  0  0
    0.4361    0.4743   -0.6437 C   0  0  0  0  0  0  0  0  0  0  0  0
    1.3891    0.6986    0.5138 C   0  0  0  0  0  0  0  0  0  0  0  0
    0.8764   -0.3320    1.4296 O   0  0  0  0  0  0  0  0  0  0  0  0
   -0.5812   -0.4543    1.2953 C   0  0  0  0  0  0  0  0  0  0  0  0
   -0.8729    0.4885    0.1311 C   0  0  0  0  0  0  0  0  0  0  0  0
   -0.6519   -0.7216   -0.8137 C   0  0  0  0  0  0  0  0  0  0  0  0
   -1.0484   -1.5999    0.2969 C   0  0  0  0  0  0  0  0  0  0  0  0
   -1.1713   -2.7965    0.1137 O   0  0  0  0  0  0  0  0  0  0  0  0
    1.1515    0.5602   -2.5236 H   0  0  0  0  0  0  0  0  0  0  0  0
    1.1200    1.7671    0.8914 H   0  0  0  0  0  0  0  0  0  0  0  0
    2.4625    0.5320    0.4564 H   0  0  0  0  0  0  0  0  0  0  0  0
   -1.0366   -0.5831    2.3353 H   0  0  0  0  0  0  0  0  0  0  0  0
   -1.3722    1.4538    0.0059 H   0  0  0  0  0  0  0  0  0  0  0  0
   -1.3860   -0.6087   -1.6601 H   0  0  0  0  0  0  0  0  0  0  0  0
  3 11  1  0
  3  4  1  0
  4  5  1  0
  3 12  1  0
  2  3  1  0
  5 13  1  0
  5  6  1  0
  5  8  1  0
  6 14  1  0
  1  2  1  0
  2  6  1  0
  2  7  1  0
  1 10  1  0
  6  7  1  0
  7  8  1  0
  8  9  2  0
  7 15  1  0
M  END
$$$$

     RDKit          3D

 19 21  0  0  0  0  0  0  0  0999 V2000
    1.6343   -0.7421    1.5592 O   0  0  0  0  0  0  0  0  0  0  0  0
    0.6744   -0.3478    0.5822 C   0  0  0  0  0  0  0  0  0  0  0  0
    1.0883   -0.1629   -0.8692 C   0  0  0  0  0  0  0  0  0  0  0  0
    0.4594    1.2424   -0.8590 C   0  0  0  0  0  0  0  0  0  0  0  0
    0.0634    1.0503    0.6289 C   0  0  0  0  0  0  0  0  0  0  0  0
   -1.3977    0.7947    0.9676 C   0  0  0  0  0  0  0  0  0  0  0  0
   -1.7486   -0.5277    0.2984 C   0  0  0  0  0  0  0  0  0  0  0  0
   -0.4499   -1.3078    0.1717 C   0  0  0  0  0  0  0  0  0  0  0  0
    0.1320   -1.2989   -1.2624 C   0  0  0  0  0  0  0  0  0  0  0  0
    2.0161   -1.5752    1.2327 H   0  0  0  0  0  0  0  0  0  0  0  0
    2.1441   -0.2558   -1.1227 H   0  0  0  0  0  0  0  0  0  0  0  0
   -0.3680    1.3992   -1.5586 H   0  0  0  0  0  0  0  0  0  0  0  0
    1.1897    2.0442   -1.0156 H   0  0  0  0  0  0  0  0  0  0  0  0
    0.5571    1.7580    1.3042 H   0  0  0  0  0  0  0  0  0  0  0  0
   -2.0440    1.6036    0.6151 H   0  0  0  0  0  0  0  0  0  0  0  0
   -1.5135    0.7030    2.0541 H   0  0  0  0  0  0  0  0  0  0  0  0
   -2.5105   -1.0750    0.8579 H   0  0  0  0  0  0  0  0  0  0  0  0
   -0.5726   -1.0699   -2.0693 H   0  0  0  0  0  0  0  0  0  0  0  0
    0.6462   -2.2325   -1.5153 H   0  0  0  0  0  0  0  0  0  0  0  0
  5 14  1  0
  4 13  1  0
  4  5  1  0
  5  6  1  0
  2  5  1  0
  6 16  1  0
  6 15  1  0
  4 12  1  0
  3  4  1  0
  6  7  1  0
  1  2  1  0
  1 10  1  0
  2  3  1  0
  2  8  1  0
  3 11  1  0
  3  9  1  0
  7  8  1  0
  7 17  1  0
  8  9  1  0
  9 19  1  0
  9 18  1  0
M  END
$$$$

     RDKit          3D

 19 20  0  0  0  0  0  0  0  0999 V2000
   -1.3511    1.4747   -1.2599 C   0  0  0  0  0  0  0  0  0  0  0  0
   -0.4848    0.3186   -0.7787 C   0  0  0  0  0  0  0  0  0  0  0  0
    0.8186    0.6848    0.0506 C   0  0  0  0  0  0  0  0  0  0  0  0
    1.8096   -0.4845    0.1605 C   0  0  0  0  0  0  0  0  0  0  0  0
    1.0548   -1.7486    0.5317 C   0  0  0  0  0  0  0  0  0  0  0  0
   -0.2792   -1.7481    0.7163 C   0  0  0  0  0  0  0  0  0  0  0  0
   -0.9886   -0.4460    0.5221 C   0  0  0  0  0  0  0  0  0  0  0  0
   -0.1791    0.7008    1.2848 C   0  0  0  0  0  0  0  0  0  0  0  0
   -0.2771    1.3173    2.3198 O   0  0  0  0  0  0  0  0  0  0  0  0
   -0.8619    2.0033   -2.0882 H   0  0  0  0  0  0  0  0  0  0  0  0
   -1.5485    2.2039   -0.4678 H   0  0  0  0  0  0  0  0  0  0  0  0
   -2.3169    1.1016   -1.6234 H   0  0  0  0  0  0  0  0  0  0  0  0
   -0.2878   -0.3397   -1.6369 H   0  0  0  0  0  0  0  0  0  0  0  0
    1.2771    1.6454   -0.1969 H   0  0  0  0  0  0  0  0  0  0  0  0
    2.3275   -0.6322   -0.7929 H   0  0  0  0  0  0  0  0  0  0  0  0
    2.5621   -0.2711    0.9281 H   0  0  0  0  0  0  0  0  0  0  0  0
    1.6262   -2.6647    0.6549 H   0  0  0  0  0  0  0  0  0  0  0  0
   -0.8351   -2.6409    0.9884 H   0  0  0  0  0  0  0  0  0  0  0  0
   -2.0659   -0.4746    0.6875 H   0  0  0  0  0  0  0  0  0  0  0  0
  4 15  1  0
  4 16  1  0
  3 14  1  0
  3  4  1  0
  4  5  1  0
  3  8  1  0
  2  3  1  0
  1 11  1  0
  5 17  1  0
  5  6  2  0
  8  9  2  0
  7  8  1  0
  1 10  1  0
  1  2  1  0
  2 13  1  0
  2  7  1  0
  1 12  1  0
  6  7  1  0
  6 18  1  0
  7 19  1  0
M  END
$$$$

     RDKit          3D

 16 16  0  0  0  0  0  0  0  0999 V2000
    0.4207    2.1036   -0.4451 C   0  0  0  0  0  0  0  0  0  0  0  0
    1.1137    0.7617   -0.2356 C   0  0  0  0  0  0  0  0  0  0  0  0
    0.1505   -0.3113    0.1210 C   0  0  0  0  0  0  0  0  0  0  0  0
   -0.2337   -1.4627   -0.5219 C   0  0  0  0  0  0  0  0  0  0  0  0
    0.2514   -1.8613   -1.6973 O   0  0  0  0  0  0  0  0  0  0  0  0
   -1.1647   -2.1589    0.1765 N   0  0  0  0  0  0  0  0  0  0  0  0
   -1.3678   -1.4421    1.2602 C   0  0  0  0  0  0  0  0  0  0  0  0
   -0.5852   -0.3244    1.2822 N   0  0  0  0  0  0  0  0  0  0  0  0
   -0.3957    2.0148   -1.1693 H   0  0  0  0  0  0  0  0  0  0  0  0
    0.0015    2.4899    0.4913 H   0  0  0  0  0  0  0  0  0  0  0  0
    1.1291    2.8428   -0.8271 H   0  0  0  0  0  0  0  0  0  0  0  0
    1.8718    0.8552    0.5546 H   0  0  0  0  0  0  0  0  0  0  0  0
    1.6479    0.4911   -1.1587 H   0  0  0  0  0  0  0  0  0  0  0  0
   -0.2078   -2.6953   -1.8995 H   0  0  0  0  0  0  0  0  0  0  0  0
   -2.0570   -1.6791    2.0579 H   0  0  0  0  0  0  0  0  0  0  0  0
   -0.5747    0.3760    2.0109 H   0  0  0  0  0  0  0  0  0  0  0  0
  5 14  1  0
  4  5  1  0
  4  6  1  0
  3  4  2  0
  2 12  1  0
  6  7  2  0
  1 10  1  0
  2  3  1  0
  3  8  1  0
  1  2  1  0
  2 13  1  0
  1  9  1  0
  1 11  1  0
  7  8  1  0
  7 15  1  0
  8 16  1  0
M  END
$$$$

     RDKit          3D

 18 19  0  0  0  0  0  0  0  0999 V2000
   -0.3131    3.4110   -0.1146 O   0  0  0  0  0  0  0  0  0  0  0  0
   -0.2656    2.5173    1.0842 N   0  0  0  0  0  0  0  0  0  0  0  0
   -0.5023    1.1480    0.5138 C   0  0  0  0  0  0  0  0  0  0  0  0
    0.5126    0.7713   -0.5823 C   0  0  0  0  0  0  0  0  0  0  0  0
    0.3951   -0.5237    0.0589 C   0  0  0  0  0  0  0  0  0  0  0  0
    0.3264   -1.7747   -0.8160 C   0  0  0  0  0  0  0  0  0  0  0  0
   -0.7758   -1.5904    0.1992 C   0  0  0  0  0  0  0  0  0  0  0  0
   -2.1530   -1.1844   -0.2199 O   0  0  0  0  0  0  0  0  0  0  0  0
    0.5596    0.0575    1.4102 C   0  0  0  0  0  0  0  0  0  0  0  0
    0.5880    3.3278   -0.5661 H   0  0  0  0  0  0  0  0  0  0  0  0
    0.4559    0.8106   -1.6875 H   0  0  0  0  0  0  0  0  0  0  0  0
    1.4443    1.3642   -0.3909 H   0  0  0  0  0  0  0  0  0  0  0  0
   -0.1790   -1.6413   -1.9135 H   0  0  0  0  0  0  0  0  0  0  0  0
    1.3913   -2.1674   -0.9535 H   0  0  0  0  0  0  0  0  0  0  0  0
   -0.6891   -2.4408    0.9217 H   0  0  0  0  0  0  0  0  0  0  0  0
   -2.5819   -1.9461   -0.7858 H   0  0  0  0  0  0  0  0  0  0  0  0
    1.5669    0.4959    1.6708 H   0  0  0  0  0  0  0  0  0  0  0  0
    0.2198   -0.6347    2.1711 H   0  0  0  0  0  0  0  0  0  0  0  0
  8 16  1  0
  7  8  1  0
  7 15  1  0
  5  7  1  0
  6  7  1  0
  4 12  1  0
  9 17  1  0
  5  6  1  0
  4  5  1  0
  5  9  1  0
  6 14  1  0
  6 13  1  0
  3  4  1  0
  4 11  1  0
  3  9  1  0
  9 18  1  0
  2  3  1  0
  1  2  1  0
  1 10  1  0
M  END
$$$$

     RDKit          3D

 18 19  0  0  0  0  0  0  0  0999 V2000
   -1.3888   -0.0611   -1.6025 C   0  0  0  0  0  0  0  0  0  0  0  0
   -0.3255    0.0657   -0.5513 C   0  0  0  0  0  0  0  0  0  0  0  0
   -0.3638    1.3341    0.2059 N   0  0  0  0  0  0  0  0  0  0  0  0
    0.1247    1.0096    1.5176 C   0  0  0  0  0  0  0  0  0  0  0  0
   -0.7128    1.5452    2.5363 N   0  0  0  0  0  0  0  0  0  0  0  0
    0.2870   -0.4247    1.6716 O   0  0  0  0  0  0  0  0  0  0  0  0
    0.0086   -1.0262    0.3779 C   0  0  0  0  0  0  0  0  0  0  0  0
    0.9319   -0.7304   -0.7673 C   0  0  0  0  0  0  0  0  0  0  0  0
    2.2742   -0.1501   -0.5731 N   0  0  0  0  0  0  0  0  0  0  0  0
   -1.0328    0.3660   -2.5656 H   0  0  0  0  0  0  0  0  0  0  0  0
   -1.6709   -1.0898   -1.7809 H   0  0  0  0  0  0  0  0  0  0  0  0
   -2.2936    0.4890   -1.3329 H   0  0  0  0  0  0  0  0  0  0  0  0
   -0.1251    1.6152    3.3536 H   0  0  0  0  0  0  0  0  0  0  0  0
   -1.4489    0.8996    2.7677 H   0  0  0  0  0  0  0  0  0  0  0  0
   -0.5784   -1.9432    0.4019 H   0  0  0  0  0  0  0  0  0  0  0  0
    0.8685   -1.3633   -1.6600 H   0  0  0  0  0  0  0  0  0  0  0  0
    2.4931    0.3805   -1.3927 H   0  0  0  0  0  0  0  0  0  0  0  0
    2.9525   -0.9160   -0.6063 H   0  0  0  0  0  0  0  0  0  0  0  0
  9 18  1  0
  9 17  1  0
  8  9  1  0
  1 11  1  0
  8 16  1  0
  2  8  1  0
  7  8  1  0
  2  3  1  0
  3  4  1  0
  1  2  1  0
  1 10  1  0
  1 12  1  0
  2  7  1  0
  5 13  1  0
  4  5  1  0
  4  6  1  0
  5 14  1  0
  6  7  1  0
  7 15  1  0
M  END
$$$$

     RDKit          3D

 15 15  0  0  0  0  0  0  0  0999 V2000
   -1.4277    2.6137    1.5115 O   0  0  0  0  0  0  0  0  0  0  0  0
   -1.3420    1.9617    0.4840 C   0  0  0  0  0  0  0  0  0  0  0  0
   -2.1920    2.0543   -0.5625 O   0  0  0  0  0  0  0  0  0  0  0  0
   -0.3187    0.9586    0.2156 C   0  0  0  0  0  0  0  0  0  0  0  0
    0.7460    0.7494    1.0001 C   0  0  0  0  0  0  0  0  0  0  0  0
    1.5494   -0.2484    0.5085 N   0  0  0  0  0  0  0  0  0  0  0  0
    0.9252   -0.8986   -0.6205 C   0  0  0  0  0  0  0  0  0  0  0  0
    0.6532   -2.3110   -0.5562 N   0  0  0  0  0  0  0  0  0  0  0  0
   -0.1121   -2.4642    0.0894 H   0  0  0  0  0  0  0  0  0  0  0  0
    0.3395   -2.6396   -1.4633 H   0  0  0  0  0  0  0  0  0  0  0  0
   -0.3255   -0.0231   -0.9192 C   0  0  0  0  0  0  0  0  0  0  0  0
    1.0092    1.2540    1.9209 H   0  0  0  0  0  0  0  0  0  0  0  0
    1.9689   -0.8658    1.1990 H   0  0  0  0  0  0  0  0  0  0  0  0
   -0.2221    0.4660   -1.8968 H   0  0  0  0  0  0  0  0  0  0  0  0
   -1.2514   -0.6068   -0.9105 H   0  0  0  0  0  0  0  0  0  0  0  0
 11 15  1  0
  2  3  1  0
  1  2  2  0
  2  4  1  0
  4 11  1  0
  4  5  2  0
  7 11  1  0
 11 14  1  0
  5 12  1  0
  5  6  1  0
  6  7  1  0
  7  8  1  0
  6 13  1  0
  8 10  1  0
  8  9  1  0
M  END
$$$$

     RDKit          3D

 15 17  0  0  0  0  0  0  0  0999 V2000
   -0.3717   -3.1651   -0.7870 O   0  0  0  0  0  0  0  0  0  0  0  0
   -0.3052   -1.9906   -0.4587 C   0  0  0  0  0  0  0  0  0  0  0  0
   -0.9827   -1.4957    0.6903 O   0  0  0  0  0  0  0  0  0  0  0  0
   -0.2570   -0.3019    0.9376 C   0  0  0  0  0  0  0  0  0  0  0  0
   -0.1862    1.1632    1.2607 C   0  0  0  0  0  0  0  0  0  0  0  0
    0.7045    1.2101   -0.1274 C   0  0  0  0  0  0  0  0  0  0  0  0
    1.5767    0.0736   -0.6061 O   0  0  0  0  0  0  0  0  0  0  0  0
    0.3956   -0.6447   -1.2211 C   0  0  0  0  0  0  0  0  0  0  0  0
   -0.4396    0.3861   -0.5516 C   0  0  0  0  0  0  0  0  0  0  0  0
    0.7138   -0.6705    1.3259 H   0  0  0  0  0  0  0  0  0  0  0  0
    0.3767    1.4275    2.1610 H   0  0  0  0  0  0  0  0  0  0  0  0
   -1.1295    1.7236    1.2587 H   0  0  0  0  0  0  0  0  0  0  0  0
    0.8701    2.1519   -0.6513 H   0  0  0  0  0  0  0  0  0  0  0  0
    0.4258   -0.6272   -2.3104 H   0  0  0  0  0  0  0  0  0  0  0  0
   -1.3915    0.7598   -0.9206 H   0  0  0  0  0  0  0  0  0  0  0  0
  9 15  1  0
  8 14  1  0
  1  2  2  0
  2  8  1  0
  2  3  1  0
  8  9  1  0
  7  8  1  0
  4  9  1  0
  6  9  1  0
  4 10  1  0
  3  4  1  0
  4  5  1  0
  6  7  1  0
  5  6  1  0
  6 13  1  0
  5 11  1  0
  5 12  1  0
M  END
$$$$

     RDKit          3D

 16 16  0  0  0  0  0  0  0  0999 V2000
    0.2571    2.4742    0.9346 C   0  0  0  0  0  0  0  0  0  0  0  0
    0.0668    1.2902    0.1448 N   0  0  0  0  0  0  0  0  0  0  0  0
    0.6155    1.0452   -1.0871 C   0  0  0  0  0  0  0  0  0  0  0  0
    0.4130   -0.2003   -1.4510 N   0  0  0  0  0  0  0  0  0  0  0  0
   -0.4080   -0.7349   -0.4756 C   0  0  0  0  0  0  0  0  0  0  0  0
   -0.6318    0.1871    0.5222 C   0  0  0  0  0  0  0  0  0  0  0  0
   -0.8211   -2.1329   -0.4600 C   0  0  0  0  0  0  0  0  0  0  0  0
    0.2629   -2.9901   -0.4127 N   0  0  0  0  0  0  0  0  0  0  0  0
   -1.9923   -2.5175   -0.3819 O   0  0  0  0  0  0  0  0  0  0  0  0
    1.3101    2.7640    0.8576 H   0  0  0  0  0  0  0  0  0  0  0  0
    0.0454    2.2578    1.9845 H   0  0  0  0  0  0  0  0  0  0  0  0
   -0.4039    3.2744    0.5825 H   0  0  0  0  0  0  0  0  0  0  0  0
    1.1712    1.7781   -1.6571 H   0  0  0  0  0  0  0  0  0  0  0  0
   -1.1760    0.1188    1.4614 H   0  0  0  0  0  0  0  0  0  0  0  0
    1.2070   -2.6425   -0.3186 H   0  0  0  0  0  0  0  0  0  0  0  0
    0.0842   -3.9716   -0.2437 H   0  0  0  0  0  0  0  0  0  0  0  0
  3 13  1  0
  1 11  1  0
  3  4  2  0
  2  3  1  0
  4  5  1  0
  8 15  1  0
  1  2  1  0
  1 10  1  0
  1 12  1  0
  2  6  1  0
  5  6  2  0
  5  7  1  0
  8 16  1  0
  7  8  1  0
  6 14  1  0
  7  9  2  0
M  END
$$$$

     RDKit          3D

 19 20  0  0  0  0  0  0  0  0999 V2000
   -0.6693    0.0067    2.0072 C   0  0  0  0  0  0  0  0  0  0  0  0
    0.1623   -0.0050    0.7225 C   0  0  0  0  0  0  0  0  0  0  0  0
   -0.1830   -1.2344   -0.1579 C   0  0  0  0  0  0  0  0  0  0  0  0
   -0.0704   -0.7643   -1.6169 C   0  0  0  0  0  0  0  0  0  0  0  0
   -0.3658    0.7013   -1.5569 C   0  0  0  0  0  0  0  0  0  0  0  0
    0.6801    1.6565   -1.2822 N   0  0  0  0  0  0  0  0  0  0  0  0
   -0.1359    1.2009   -0.1529 C   0  0  0  0  0  0  0  0  0  0  0  0
    1.5955    0.0575    1.0460 C   0  0  0  0  0  0  0  0  0  0  0  0
    2.7265    0.0737    1.3113 N   0  0  0  0  0  0  0  0  0  0  0  0
   -0.4680    0.9044    2.6039 H   0  0  0  0  0  0  0  0  0  0  0  0
   -0.4520   -0.8712    2.6270 H   0  0  0  0  0  0  0  0  0  0  0  0
   -1.7388   -0.0078    1.7792 H   0  0  0  0  0  0  0  0  0  0  0  0
   -1.2240   -1.5472    0.0243 H   0  0  0  0  0  0  0  0  0  0  0  0
    0.4627   -2.1079    0.0310 H   0  0  0  0  0  0  0  0  0  0  0  0
    0.9374   -0.9473   -2.0151 H   0  0  0  0  0  0  0  0  0  0  0  0
   -0.7880   -1.2957   -2.2563 H   0  0  0  0  0  0  0  0  0  0  0  0
   -1.2468    1.0258   -2.0875 H   0  0  0  0  0  0  0  0  0  0  0  0
    1.6140    1.2387   -1.2868 H   0  0  0  0  0  0  0  0  0  0  0  0
   -0.8364    1.9153    0.2600 H   0  0  0  0  0  0  0  0  0  0  0  0
  3 13  1  0
  3 14  1  0
  4 16  1  0
  3  4  1  0
  2  3  1  0
  4 15  1  0
  1 11  1  0
  4  5  1  0
  8  9  3  0
  2  8  1  0
  1  2  1  0
  2  7  1  0
  1 10  1  0
  1 12  1  0
  5  6  1  0
  5  7  1  0
  5 17  1  0
  6  7  1  0
  6 18  1  0
  7 19  1  0
M  END
$$$$

     RDKit          3D

 23 22  0  0  0  0  0  0  0  0999 V2000
   -0.6418    1.9582    2.1379 C   0  0  0  0  0  0  0  0  0  0  0  0
    0.2161    0.8850    1.7591 C   0  0  0  0  0  0  0  0  0  0  0  0
   -0.6225   -0.1953    1.0210 C   0  0  0  0  0  0  0  0  0  0  0  0
   -1.0069    0.1279   -0.2645 O   0  0  0  0  0  0  0  0  0  0  0  0
   -0.2885    0.0508   -1.4629 C   0  0  0  0  0  0  0  0  0  0  0  0
   -0.5525   -0.4683   -2.8820 C   0  0  0  0  0  0  0  0  0  0  0  0
    0.9938   -0.6007   -1.0892 C   0  0  0  0  0  0  0  0  0  0  0  0
    0.0723   -1.4492    1.2413 C   0  0  0  0  0  0  0  0  0  0  0  0
    0.7225   -2.4639    1.2816 C   0  0  0  0  0  0  0  0  0  0  0  0
   -1.3389    2.2958    1.4227 H   0  0  0  0  0  0  0  0  0  0  0  0
   -0.0367    2.9379    2.5119 H   0  0  0  0  0  0  0  0  0  0  0  0
   -1.1603    1.7503    3.0034 H   0  0  0  0  0  0  0  0  0  0  0  0
    0.6742    0.3636    2.6026 H   0  0  0  0  0  0  0  0  0  0  0  0
    1.0460    1.1576    1.1783 H   0  0  0  0  0  0  0  0  0  0  0  0
   -1.5009   -0.2568    1.6086 H   0  0  0  0  0  0  0  0  0  0  0  0
   -0.1875    1.1575   -1.6854 H   0  0  0  0  0  0  0  0  0  0  0  0
   -0.2594    0.3816   -3.5429 H   0  0  0  0  0  0  0  0  0  0  0  0
   -1.7239   -0.7402   -2.9484 H   0  0  0  0  0  0  0  0  0  0  0  0
    0.3095   -1.4643   -3.3183 H   0  0  0  0  0  0  0  0  0  0  0  0
    0.7204   -1.5780   -1.0355 H   0  0  0  0  0  0  0  0  0  0  0  0
    1.4677   -0.7084   -2.0634 H   0  0  0  0  0  0  0  0  0  0  0  0
    1.6987    0.1422   -0.8804 H   0  0  0  0  0  0  0  0  0  0  0  0
    1.3987   -3.2834    1.4047 H   0  0  0  0  0  0  0  0  0  0  0  0
  6 17  1  0
  6 18  1  0
  7 21  1  0
  6 19  1  0
  5  6  1  0
  5 16  1  0
  5  7  1  0
  4  5  1  0
  7 20  1  0
  7 22  1  0
  9 23  1  0
  8  9  3  0
  3 15  1  0
  3  8  1  0
  3  4  1  0
  2  3  1  0
  1 11  1  0
  2 14  1  0
  1  2  1  0
  2 13  1  0
  1 10  1  0
  1 12  1  0
M  END
$$$$

     RDKit          3D

 18 21  0  0  0  0  0  0  0  0999 V2000
    0.4599   -2.2192    1.4279 O   0  0  0  0  0  0  0  0  0  0  0  0
    0.2995   -0.8366    0.8735 C   0  0  0  0  0  0  0  0  0  0  0  0
   -0.2407    0.3018    1.6388 C   0  0  0  0  0  0  0  0  0  0  0  0
   -0.9197    0.7530    0.3643 C   0  0  0  0  0  0  0  0  0  0  0  0
    0.3895    1.1977   -0.6083 C   0  0  0  0  0  0  0  0  0  0  0  0
    0.2762    0.5359   -1.9995 C   0  0  0  0  0  0  0  0  0  0  0  0
    0.1596   -0.8060   -1.2706 N   0  0  0  0  0  0  0  0  0  0  0  0
    1.2257   -0.1728   -0.1381 C   0  0  0  0  0  0  0  0  0  0  0  0
   -0.8242   -0.7114   -0.1316 C   0  0  0  0  0  0  0  0  0  0  0  0
   -0.6648   -2.3999    1.4256 H   0  0  0  0  0  0  0  0  0  0  0  0
    0.4823    0.9742    2.1565 H   0  0  0  0  0  0  0  0  0  0  0  0
   -0.6747   -0.2484    2.5470 H   0  0  0  0  0  0  0  0  0  0  0  0
   -1.7009    1.6838    0.1326 H   0  0  0  0  0  0  0  0  0  0  0  0
    0.6004    2.4079   -0.6982 H   0  0  0  0  0  0  0  0  0  0  0  0
   -0.6888    0.6742   -2.6750 H   0  0  0  0  0  0  0  0  0  0  0  0
    1.3243    0.7600   -2.4489 H   0  0  0  0  0  0  0  0  0  0  0  0
    2.2226   -0.4418   -0.4338 H   0  0  0  0  0  0  0  0  0  0  0  0
   -1.7260   -1.4524   -0.1621 H   0  0  0  0  0  0  0  0  0  0  0  0
  3 11  1  0
  3 12  1  0
  3  4  1  0
  2  3  1  0
  4 13  1  0
  4  9  1  0
  4  5  1  0
  9 18  1  0
  1  2  1  0
  1 10  1  0
  2  9  1  0
  2  8  1  0
  7  9  1  0
  5 14  1  0
  5  8  1  0
  5  6  1  0
  7  8  1  0
  8 17  1  0
  6 15  1  0
  6  7  1  0
  6 16  1  0
M  END
$$$$

     RDKit          3D

 17 19  0  0  0  0  0  0  0  0999 V2000
   -0.7590   -1.3729    2.3274 O   0  0  0  0  0  0  0  0  0  0  0  0
   -0.7547   -0.3146    1.7420 C   0  0  0  0  0  0  0  0  0  0  0  0
   -1.2846    0.9576    2.0789 N   0  0  0  0  0  0  0  0  0  0  0  0
   -0.2434    1.6029    1.2495 C   0  0  0  0  0  0  0  0  0  0  0  0
   -0.2167    0.2417    0.4893 C   0  0  0  0  0  0  0  0  0  0  0  0
   -0.4032   -0.0031   -0.9136 C   0  0  0  0  0  0  0  0  0  0  0  0
    0.3123   -0.5202   -2.1513 C   0  0  0  0  0  0  0  0  0  0  0  0
    1.0389   -1.4630   -1.1229 C   0  0  0  0  0  0  0  0  0  0  0  0
    0.9505   -0.1746   -0.1852 N   0  0  0  0  0  0  0  0  0  0  0  0
   -1.2001    1.0405    3.1002 H   0  0  0  0  0  0  0  0  0  0  0  0
    0.7364    1.6877    1.7919 H   0  0  0  0  0  0  0  0  0  0  0  0
   -0.5774    2.4630    0.7837 H   0  0  0  0  0  0  0  0  0  0  0  0
   -0.7936    0.8759   -1.2627 H   0  0  0  0  0  0  0  0  0  0  0  0
   -0.2050   -1.2334   -2.8905 H   0  0  0  0  0  0  0  0  0  0  0  0
    1.0269    0.0919   -2.7065 H   0  0  0  0  0  0  0  0  0  0  0  0
    0.2878   -2.2952   -0.7561 H   0  0  0  0  0  0  0  0  0  0  0  0
    2.0847   -1.5843   -1.5741 H   0  0  0  0  0  0  0  0  0  0  0  0
  8 16  1  0
  8 17  1  0
  4 11  1  0
  8  9  1  0
  7  8  1  0
  5  9  1  0
  6  9  1  0
  3 10  1  0
  3  4  1  0
  2  3  1  0
  1  2  2  0
  4  5  1  0
  4 12  1  0
  2  5  1  0
  5  6  1  0
  6  7  1  0
  6 13  1  0
  7 14  1  0
  7 15  1  0
M  END
$$$$

     RDKit          3D

 16 17  0  0  0  0  0  0  0  0999 V2000
    0.0208    1.7093    1.1175 N   0  0  0  0  0  0  0  0  0  0  0  0
    0.5957    0.7496    0.1098 C   0  0  0  0  0  0  0  0  0  0  0  0
    1.9538    1.0244   -0.3267 C   0  0  0  0  0  0  0  0  0  0  0  0
    3.0135    1.3165   -0.6935 N   0  0  0  0  0  0  0  0  0  0  0  0
   -0.3124    0.1268   -0.9824 C   0  0  0  0  0  0  0  0  0  0  0  0
   -1.6322   -0.4046   -0.7154 N   0  0  0  0  0  0  0  0  0  0  0  0
   -1.2128   -1.0833    0.5027 C   0  0  0  0  0  0  0  0  0  0  0  0
    0.2042   -0.6761    0.1678 C   0  0  0  0  0  0  0  0  0  0  0  0
    1.1470   -1.7017   -0.1649 O   0  0  0  0  0  0  0  0  0  0  0  0
    0.6818    1.7961    1.8918 H   0  0  0  0  0  0  0  0  0  0  0  0
   -0.0913    2.6502    0.7346 H   0  0  0  0  0  0  0  0  0  0  0  0
   -0.1605    0.8828   -1.7997 H   0  0  0  0  0  0  0  0  0  0  0  0
   -1.8877   -1.0512   -1.4480 H   0  0  0  0  0  0  0  0  0  0  0  0
   -1.4163   -2.1591    0.5478 H   0  0  0  0  0  0  0  0  0  0  0  0
   -1.5741   -0.6352    1.4231 H   0  0  0  0  0  0  0  0  0  0  0  0
    0.6703   -2.5443   -0.3645 H   0  0  0  0  0  0  0  0  0  0  0  0
  9 16  1  0
  3  4  3  0
  8  9  1  0
  2  3  1  0
  1  2  1  0
  1 11  1  0
  1 10  1  0
  2  8  1  0
  2  5  1  0
  7  8  1  0
  5  8  1  0
  7 15  1  0
  7 14  1  0
  6  7  1  0
  5 12  1  0
  5  6  1  0
  6 13  1  0
M  END
$$$$

     RDKit          3D

  8  8  0  0  0  0  0  0  0  0999 V2000
    0.1728   -1.4817    1.2803 O   0  0  0  0  0  0  0  0  0  0  0  0
    0.0660   -0.5657    0.4888 C   0  0  0  0  0  0  0  0  0  0  0  0
   -0.1876    0.7583    0.7418 N   0  0  0  0  0  0  0  0  0  0  0  0
   -0.2283    1.4532   -0.4271 N   0  0  0  0  0  0  0  0  0  0  0  0
   -0.0167    0.6475   -1.3881 N   0  0  0  0  0  0  0  0  0  0  0  0
    0.1691   -0.6001   -0.8784 N   0  0  0  0  0  0  0  0  0  0  0  0
   -0.3284    1.1918    1.6391 H   0  0  0  0  0  0  0  0  0  0  0  0
    0.3531   -1.4034   -1.4563 H   0  0  0  0  0  0  0  0  0  0  0  0
  1  2  2  0
  2  3  1  0
  2  6  1  0
  3  4  1  0
  3  7  1  0
  4  5  2  0
  5  6  1  0
  6  8  1  0
M  END
$$$$

     RDKit          3D

 15 15  0  0  0  0  0  0  0  0999 V2000
   -0.7326    0.7922   -1.8742 N   0  0  0  0  0  0  0  0  0  0  0  0
   -1.1768    0.0511   -0.8832 C   0  0  0  0  0  0  0  0  0  0  0  0
   -1.8104    0.4798    0.2202 N   0  0  0  0  0  0  0  0  0  0  0  0
   -1.2986   -0.4025    1.1138 N   0  0  0  0  0  0  0  0  0  0  0  0
   -0.2716   -1.0884    0.4942 C   0  0  0  0  0  0  0  0  0  0  0  0
    1.2299   -0.8269    0.6990 C   0  0  0  0  0  0  0  0  0  0  0  0
    1.4919    0.6418    0.8579 C   0  0  0  0  0  0  0  0  0  0  0  0
    2.6026    1.1433    1.1781 O   0  0  0  0  0  0  0  0  0  0  0  0
   -0.6773   -1.1841   -0.7453 N   0  0  0  0  0  0  0  0  0  0  0  0
   -0.4962    0.3466   -2.7618 H   0  0  0  0  0  0  0  0  0  0  0  0
   -1.1984    1.7053   -1.9521 H   0  0  0  0  0  0  0  0  0  0  0  0
   -1.6853   -0.4360    2.0819 H   0  0  0  0  0  0  0  0  0  0  0  0
    1.6104   -1.0575   -0.3090 H   0  0  0  0  0  0  0  0  0  0  0  0
    1.7114   -1.5276    1.3359 H   0  0  0  0  0  0  0  0  0  0  0  0
    0.7010    1.3628    0.5446 H   0  0  0  0  0  0  0  0  0  0  0  0
  7  8  2  0
  7 15  1  0
  6  7  1  0
  4 12  1  0
  3  4  1  0
  2  3  2  0
  4  5  1  0
  1  2  1  0
  1 11  1  0
  1 10  1  0
  2  9  1  0
  5  6  1  0
  5  9  2  0
  6 14  1  0
  6 13  1  0
M  END
$$$$

     RDKit          3D

 17 17  0  0  0  0  0  0  0  0999 V2000
    1.1572   -0.6395   -1.0096 N   0  0  0  0  0  0  0  0  0  0  0  0
    2.1827   -0.6440   -0.9429 H   0  0  0  0  0  0  0  0  0  0  0  0
    0.9068   -1.6729    0.3528 H   0  0  0  0  0  0  0  0  0  0  0  0
    1.0061   -0.7493   -2.0200 H   0  0  0  0  0  0  0  0  0  0  0  0
    0.5960    0.6203   -0.4923 C   0  0  0  0  0  0  0  0  0  0  0  0
   -0.7968    0.8368   -1.1267 C   0  0  0  0  0  0  0  0  0  0  0  0
   -1.4235    0.1157    0.0810 C   0  0  0  0  0  0  0  0  0  0  0  0
   -0.1174    0.4004    0.8696 C   0  0  0  0  0  0  0  0  0  0  0  0
    0.3333   -0.6705    1.8917 C   0  0  0  0  0  0  0  0  0  0  0  0
    0.2276   -0.5745    3.1124 O   0  0  0  0  0  0  0  0  0  0  0  0
    0.8790   -1.7891    1.3353 O   0  0  0  0  0  0  0  0  0  0  0  0
    1.2751    1.4764   -0.5608 H   0  0  0  0  0  0  0  0  0  0  0  0
   -0.9961    0.3869   -2.1035 H   0  0  0  0  0  0  0  0  0  0  0  0
   -1.0773    1.8980   -1.1780 H   0  0  0  0  0  0  0  0  0  0  0  0
   -1.6282   -0.9484   -0.0893 H   0  0  0  0  0  0  0  0  0  0  0  0
   -2.3252    0.5865    0.4871 H   0  0  0  0  0  0  0  0  0  0  0  0
   -0.1993    1.3672    1.3932 H   0  0  0  0  0  0  0  0  0  0  0  0
  1  2  1  0
  1  4  1  0
  1  5  1  0
  3 11  1  0
  6 14  1  0
  5  6  1  0
  5 12  1  0
  5  8  1  0
  6 13  1  0
  9 11  1  0
  6  7  1  0
  8  9  1  0
  9 10  2  0
  7  8  1  0
  8 17  1  0
  7 16  1  0
  7 15  1  0
M  END
$$$$

     RDKit          3D

 21 22  0  0  0  0  0  0  0  0999 V2000
   -1.3237   -2.0558    0.5484 C   0  0  0  0  0  0  0  0  0  0  0  0
   -0.0538   -2.2269   -0.3188 C   0  0  0  0  0  0  0  0  0  0  0  0
    0.3346   -0.8426    0.1890 C   0  0  0  0  0  0  0  0  0  0  0  0
   -0.7031   -0.8731    1.3042 C   0  0  0  0  0  0  0  0  0  0  0  0
    0.8033    0.2339   -0.5026 C   0  0  0  0  0  0  0  0  0  0  0  0
   -0.0980    1.1814   -1.2373 C   0  0  0  0  0  0  0  0  0  0  0  0
   -0.0624    2.3799   -0.3143 C   0  0  0  0  0  0  0  0  0  0  0  0
    1.1949    2.3725    0.3659 O   0  0  0  0  0  0  0  0  0  0  0  0
    1.8398    1.1378    0.1028 C   0  0  0  0  0  0  0  0  0  0  0  0
   -2.2250   -1.7953   -0.0299 H   0  0  0  0  0  0  0  0  0  0  0  0
   -1.5233   -2.9352    1.1833 H   0  0  0  0  0  0  0  0  0  0  0  0
    0.6197   -3.0238    0.0018 H   0  0  0  0  0  0  0  0  0  0  0  0
   -0.2645   -2.3644   -1.3926 H   0  0  0  0  0  0  0  0  0  0  0  0
   -0.2994   -1.1352    2.2852 H   0  0  0  0  0  0  0  0  0  0  0  0
   -1.3661   -0.0034    1.4009 H   0  0  0  0  0  0  0  0  0  0  0  0
    0.3688    1.4209   -2.2133 H   0  0  0  0  0  0  0  0  0  0  0  0
   -1.1206    0.8203   -1.3874 H   0  0  0  0  0  0  0  0  0  0  0  0
   -0.8465    2.3527    0.4439 H   0  0  0  0  0  0  0  0  0  0  0  0
   -0.1915    3.3205   -0.8476 H   0  0  0  0  0  0  0  0  0  0  0  0
    2.6456    1.2798   -0.6253 H   0  0  0  0  0  0  0  0  0  0  0  0
    2.2713    0.7560    1.0437 H   0  0  0  0  0  0  0  0  0  0  0  0
  1 11  1  0
  1 10  1  0
  1  4  1  0
  1  2  1  0
  4 15  1  0
  2 12  1  0
  3  4  1  0
  4 14  1  0
  2  3  1  0
  2 13  1  0
  3  5  2  3
  9 20  1  0
  6 17  1  0
  7 19  1  0
  5  6  1  0
  5  9  1  0
  6  7  1  0
  6 16  1  0
  9 21  1  0
  8  9  1  0
  7  8  1  0
  7 18  1  0
M  END
$$$$

     RDKit          3D

 18 19  0  0  0  0  0  0  0  0999 V2000
    0.4901   -1.1130   -3.1215 N   0  0  0  0  0  0  0  0  0  0  0  0
   -0.8221   -1.0086   -2.4595 C   0  0  0  0  0  0  0  0  0  0  0  0
   -0.6622   -1.1185   -1.0496 O   0  0  0  0  0  0  0  0  0  0  0  0
   -0.4327    0.1511   -0.3900 C   0  0  0  0  0  0  0  0  0  0  0  0
   -0.8515    0.1490    1.1212 C   0  0  0  0  0  0  0  0  0  0  0  0
    0.4942   -0.6529    1.3124 C   0  0  0  0  0  0  0  0  0  0  0  0
    0.9455    0.4922    0.3348 C   0  0  0  0  0  0  0  0  0  0  0  0
    0.7016    1.7523    1.0803 C   0  0  0  0  0  0  0  0  0  0  0  0
   -0.5101    1.5609    1.6158 C   0  0  0  0  0  0  0  0  0  0  0  0
    0.9144   -1.9599   -2.6779 H   0  0  0  0  0  0  0  0  0  0  0  0
   -1.5285   -1.7895   -2.7527 H   0  0  0  0  0  0  0  0  0  0  0  0
   -0.9033    0.9642   -0.9699 H   0  0  0  0  0  0  0  0  0  0  0  0
   -1.7948   -0.2531    1.4509 H   0  0  0  0  0  0  0  0  0  0  0  0
    0.8999   -0.6578    2.3431 H   0  0  0  0  0  0  0  0  0  0  0  0
    0.8901   -1.6502    0.8519 H   0  0  0  0  0  0  0  0  0  0  0  0
    1.8603    0.3254   -0.2264 H   0  0  0  0  0  0  0  0  0  0  0  0
    1.3558    2.6255    1.1593 H   0  0  0  0  0  0  0  0  0  0  0  0
   -1.0468    2.1828    2.3778 H   0  0  0  0  0  0  0  0  0  0  0  0
  7 16  1  0
  8 17  1  0
  7  8  1  0
  4  7  1  0
  6  7  1  0
  8  9  2  0
  4 12  1  0
  3  4  1  0
  2  3  1  0
  4  5  1  0
  1  2  1  0
  2 11  1  0
  1 10  1  0
  6 15  1  0
  6 14  1  0
  5  6  1  0
  5  9  1  0
  9 18  1  0
  5 13  1  0
M  END
$$$$

     RDKit          3D

 21 21  0  0  0  0  0  0  0  0999 V2000
   -1.1352   -1.5447    1.5199 C   0  0  0  0  0  0  0  0  0  0  0  0
   -1.0833   -0.0492    1.2391 C   0  0  0  0  0  0  0  0  0  0  0  0
   -0.6542    0.3442   -0.1838 C   0  0  0  0  0  0  0  0  0  0  0  0
   -0.1670    1.8105   -0.2147 C   0  0  0  0  0  0  0  0  0  0  0  0
    1.3482    1.7500   -0.0318 C   0  0  0  0  0  0  0  0  0  0  0  0
    1.6809    0.4157   -0.6046 C   0  0  0  0  0  0  0  0  0  0  0  0
    0.5855   -0.3539   -0.7032 C   0  0  0  0  0  0  0  0  0  0  0  0
    0.5565   -1.5271   -1.4881 C   0  0  0  0  0  0  0  0  0  0  0  0
    0.5817   -2.3135   -2.4118 C   0  0  0  0  0  0  0  0  0  0  0  0
   -1.4929   -1.7151    2.5363 H   0  0  0  0  0  0  0  0  0  0  0  0
   -1.8144   -2.0538    0.8213 H   0  0  0  0  0  0  0  0  0  0  0  0
   -0.1463   -2.0087    1.4629 H   0  0  0  0  0  0  0  0  0  0  0  0
   -2.0726    0.4012    1.4257 H   0  0  0  0  0  0  0  0  0  0  0  0
   -0.3928    0.4033    1.9699 H   0  0  0  0  0  0  0  0  0  0  0  0
   -1.5235    0.2270   -0.8526 H   0  0  0  0  0  0  0  0  0  0  0  0
   -0.3921    2.2146   -1.2095 H   0  0  0  0  0  0  0  0  0  0  0  0
   -0.6722    2.4450    0.5203 H   0  0  0  0  0  0  0  0  0  0  0  0
    1.6182    1.8072    1.0216 H   0  0  0  0  0  0  0  0  0  0  0  0
    1.8710    2.5418   -0.5693 H   0  0  0  0  0  0  0  0  0  0  0  0
    2.6756    0.1702   -0.9681 H   0  0  0  0  0  0  0  0  0  0  0  0
    0.6288   -2.9648   -3.2794 H   0  0  0  0  0  0  0  0  0  0  0  0
  6 20  1  0
  5 18  1  0
  5  6  1  0
  6  7  2  0
  5 19  1  0
  4  5  1  0
  9 21  1  0
  8  9  3  0
  7  8  1  0
  3  7  1  0
  3  4  1  0
  4 16  1  0
  4 17  1  0
  3 15  1  0
  2  3  1  0
  2 14  1  0
  2 13  1  0
  1  2  1  0
  1 11  1  0
  1 10  1  0
  1 12  1  0
M  END
$$$$

     RDKit          3D

 13 13  0  0  0  0  0  0  0  0999 V2000
   -1.7713    1.4801   -2.6565 O   0  0  0  0  0  0  0  0  0  0  0  0
   -1.4507    0.7582   -1.7200 C   0  0  0  0  0  0  0  0  0  0  0  0
   -2.3795    0.1074   -0.9146 O   0  0  0  0  0  0  0  0  0  0  0  0
   -1.5562   -0.5593   -0.0517 C   0  0  0  0  0  0  0  0  0  0  0  0
   -0.2857   -0.3345   -0.2937 C   0  0  0  0  0  0  0  0  0  0  0  0
    0.9236   -0.8725    0.3878 C   0  0  0  0  0  0  0  0  0  0  0  0
    1.6007    0.1876    1.1475 C   0  0  0  0  0  0  0  0  0  0  0  0
    2.1610    1.0521    1.7670 C   0  0  0  0  0  0  0  0  0  0  0  0
   -0.1292    0.5099   -1.3762 O   0  0  0  0  0  0  0  0  0  0  0  0
   -2.0301   -1.1663    0.6992 H   0  0  0  0  0  0  0  0  0  0  0  0
    0.6465   -1.6882    1.0642 H   0  0  0  0  0  0  0  0  0  0  0  0
    1.6046   -1.2974   -0.3570 H   0  0  0  0  0  0  0  0  0  0  0  0
    2.6663    1.8229    2.3041 H   0  0  0  0  0  0  0  0  0  0  0  0
  1  2  2  0
  6 12  1  0
  2  9  1  0
  5  9  1  0
  2  3  1  0
  5  6  1  0
  4  5  2  0
  6 11  1  0
  6  7  1  0
  3  4  1  0
  4 10  1  0
  7  8  3  0
  8 13  1  0
M  END
$$$$

     RDKit          3D

 17 18  0  0  0  0  0  0  0  0999 V2000
    2.2033   -1.4504   -1.4758 O   0  0  0  0  0  0  0  0  0  0  0  0
    0.8063   -1.1908   -1.3711 C   0  0  0  0  0  0  0  0  0  0  0  0
    0.4931   -0.7808    0.0134 C   0  0  0  0  0  0  0  0  0  0  0  0
    0.8125    0.5434    0.5759 C   0  0  0  0  0  0  0  0  0  0  0  0
   -0.6296    0.6110    1.1587 C   0  0  0  0  0  0  0  0  0  0  0  0
   -1.4563    1.6821    0.6412 C   0  0  0  0  0  0  0  0  0  0  0  0
   -2.1292    2.5916    0.2365 C   0  0  0  0  0  0  0  0  0  0  0  0
   -0.8978   -0.7140    0.5519 C   0  0  0  0  0  0  0  0  0  0  0  0
   -0.0110   -1.7737    0.9057 O   0  0  0  0  0  0  0  0  0  0  0  0
    2.4287   -2.0282   -0.7175 H   0  0  0  0  0  0  0  0  0  0  0  0
    0.2679   -2.1063   -1.6457 H   0  0  0  0  0  0  0  0  0  0  0  0
    0.5499   -0.4086   -2.0944 H   0  0  0  0  0  0  0  0  0  0  0  0
    1.0533    1.3274   -0.1511 H   0  0  0  0  0  0  0  0  0  0  0  0
    1.6002    0.5390    1.3375 H   0  0  0  0  0  0  0  0  0  0  0  0
   -0.6350    0.5720    2.2575 H   0  0  0  0  0  0  0  0  0  0  0  0
   -2.7109    3.4191   -0.1181 H   0  0  0  0  0  0  0  0  0  0  0  0
   -1.7453   -0.8328   -0.1047 H   0  0  0  0  0  0  0  0  0  0  0  0
  1 10  1  0
  8  9  1  0
  3  9  1  0
  2 11  1  0
  8 17  1  0
  1  2  1  0
  3  8  1  0
  5  8  1  0
  2  3  1  0
  2 12  1  0
  7 16  1  0
  3  4  1  0
  6  7  3  0
  5  6  1  0
  4  5  1  0
  5 15  1  0
  4 14  1  0
  4 13  1  0
M  END
$$$$

     RDKit          3D

 21 24  0  0  0  0  0  0  0  0999 V2000
    0.3759   -2.2807    0.2164 C   0  0  0  0  0  0  0  0  0  0  0  0
    1.0912   -1.1278    0.9243 C   0  0  0  0  0  0  0  0  0  0  0  0
    0.5704   -0.2108    1.9158 C   0  0  0  0  0  0  0  0  0  0  0  0
    0.9811    0.3654    0.2304 C   0  0  0  0  0  0  0  0  0  0  0  0
    0.0943    1.7384    0.3853 C   0  0  0  0  0  0  0  0  0  0  0  0
   -0.0210    1.6530   -1.3111 C   0  0  0  0  0  0  0  0  0  0  0  0
   -1.5187    1.2881   -1.1894 C   0  0  0  0  0  0  0  0  0  0  0  0
   -1.0100    0.4686   -0.0877 C   0  0  0  0  0  0  0  0  0  0  0  0
    0.1231    0.1460   -1.0429 C   0  0  0  0  0  0  0  0  0  0  0  0
   -0.4816   -2.0261   -0.4543 H   0  0  0  0  0  0  0  0  0  0  0  0
   -0.1824   -2.9305    0.8846 H   0  0  0  0  0  0  0  0  0  0  0  0
    1.1121   -2.8478   -0.4415 H   0  0  0  0  0  0  0  0  0  0  0  0
    2.1362   -1.4394    1.0443 H   0  0  0  0  0  0  0  0  0  0  0  0
   -0.3984    0.2164    2.2148 H   0  0  0  0  0  0  0  0  0  0  0  0
    1.2508   -0.1639    2.7265 H   0  0  0  0  0  0  0  0  0  0  0  0
    1.0388    2.3584    0.2472 H   0  0  0  0  0  0  0  0  0  0  0  0
    0.1991    2.5455   -1.8282 H   0  0  0  0  0  0  0  0  0  0  0  0
   -2.2755    2.0011   -0.7974 H   0  0  0  0  0  0  0  0  0  0  0  0
   -1.8045    1.1415   -2.2881 H   0  0  0  0  0  0  0  0  0  0  0  0
   -1.4975   -0.2770    0.4850 H   0  0  0  0  0  0  0  0  0  0  0  0
    0.2165   -0.6183   -1.8338 H   0  0  0  0  0  0  0  0  0  0  0  0
  1 11  1  0
  3 14  1  0
  2 13  1  0
  3 15  1  0
  2  3  1  0
  3  4  1  0
  1  2  1  0
  1 10  1  0
  1 12  1  0
  2  4  1  0
  4  9  1  0
  4  5  1  0
  9 21  1  0
  8  9  1  0
  6  9  1  0
  5 16  1  0
  5  8  1  0
  5  6  1  0
  8 20  1  0
  7  8  1  0
  6 17  1  0
  6  7  1  0
  7 19  1  0
  7 18  1  0
M  END
$$$$

     RDKit          3D

 18 19  0  0  0  0  0  0  0  0999 V2000
   -1.8898    1.2093    0.7622 C   0  0  0  0  0  0  0  0  0  0  0  0
   -0.7295    0.2355    0.6245 C   0  0  0  0  0  0  0  0  0  0  0  0
    0.5668    0.9486    0.5989 N   0  0  0  0  0  0  0  0  0  0  0  0
    1.7381    0.4134    0.1621 C   0  0  0  0  0  0  0  0  0  0  0  0
    2.7352    1.1331    0.1553 O   0  0  0  0  0  0  0  0  0  0  0  0
    1.7483   -1.0336   -0.3660 C   0  0  0  0  0  0  0  0  0  0  0  0
    0.4018   -1.4653   -0.8958 C   0  0  0  0  0  0  0  0  0  0  0  0
   -0.1356   -0.4169   -1.7608 O   0  0  0  0  0  0  0  0  0  0  0  0
   -0.8659   -0.6928   -0.5523 C   0  0  0  0  0  0  0  0  0  0  0  0
   -1.9429    1.8942   -0.0894 H   0  0  0  0  0  0  0  0  0  0  0  0
   -2.8571    0.6948    0.8666 H   0  0  0  0  0  0  0  0  0  0  0  0
   -1.7541    1.8387    1.6456 H   0  0  0  0  0  0  0  0  0  0  0  0
   -0.7147   -0.3719    1.5606 H   0  0  0  0  0  0  0  0  0  0  0  0
    0.5365    1.8849    0.2238 H   0  0  0  0  0  0  0  0  0  0  0  0
    2.4095   -0.9848   -1.2476 H   0  0  0  0  0  0  0  0  0  0  0  0
    2.1712   -1.7288    0.3788 H   0  0  0  0  0  0  0  0  0  0  0  0
    0.4295   -2.4211   -1.3728 H   0  0  0  0  0  0  0  0  0  0  0  0
   -1.8473   -1.1371   -0.6936 H   0  0  0  0  0  0  0  0  0  0  0  0
  4  5  2  0
  3 14  1  0
  3  4  1  0
  4  6  1  0
  2  3  1  0
  1 11  1  0
  6 16  1  0
  6 15  1  0
  6  7  1  0
  1 10  1  0
  1  2  1  0
  1 12  1  0
  2 13  1  0
  2  9  1  0
  7  9  1  0
  7  8  1  0
  7 17  1  0
  8  9  1  0
  9 18  1  0
M  END
$$$$

     RDKit          3D

 16 17  0  0  0  0  0  0  0  0999 V2000
    1.0047    0.6779   -2.6909 O   0  0  0  0  0  0  0  0  0  0  0  0
    0.6929    1.3199   -1.6898 C   0  0  0  0  0  0  0  0  0  0  0  0
    0.3590    0.6569   -0.3903 C   0  0  0  0  0  0  0  0  0  0  0  0
    1.3940   -0.2639    0.2335 C   0  0  0  0  0  0  0  0  0  0  0  0
    0.1279   -0.8248   -0.3622 C   0  0  0  0  0  0  0  0  0  0  0  0
   -0.9741   -1.3527    0.4687 C   0  0  0  0  0  0  0  0  0  0  0  0
   -1.4559   -0.4411    1.4686 O   0  0  0  0  0  0  0  0  0  0  0  0
   -1.1927    0.8738    1.3910 C   0  0  0  0  0  0  0  0  0  0  0  0
   -0.4039    1.4697    0.5736 N   0  0  0  0  0  0  0  0  0  0  0  0
    0.6523    2.4253   -1.6891 H   0  0  0  0  0  0  0  0  0  0  0  0
    1.5034   -0.2625    1.3072 H   0  0  0  0  0  0  0  0  0  0  0  0
    2.3156   -0.4416   -0.3078 H   0  0  0  0  0  0  0  0  0  0  0  0
    0.2283   -1.3833   -1.2859 H   0  0  0  0  0  0  0  0  0  0  0  0
   -1.8298   -1.6223   -0.1644 H   0  0  0  0  0  0  0  0  0  0  0  0
   -0.6584   -2.2652    0.9887 H   0  0  0  0  0  0  0  0  0  0  0  0
   -1.7634    1.4341    2.1491 H   0  0  0  0  0  0  0  0  0  0  0  0
  6 14  1  0
  6 15  1  0
  5 13  1  0
  5  6  1  0
  6  7  1  0
  3  5  1  0
  4  5  1  0
  7  8  1  0
  1  2  2  0
  2  3  1  0
  3  4  1  0
  3  9  1  0
  8 16  1  0
  8  9  2  0
  2 10  1  0
  4 11  1  0
  4 12  1  0
M  END
$$$$

     RDKit          3D

 19 19  0  0  0  0  0  0  0  0999 V2000
    1.8459    1.8919    0.7057 C   0  0  0  0  0  0  0  0  0  0  0  0
    0.5074    1.3432    1.1641 C   0  0  0  0  0  0  0  0  0  0  0  0
   -0.0799    0.3395    0.1709 C   0  0  0  0  0  0  0  0  0  0  0  0
   -1.3739   -0.0354    0.6285 O   0  0  0  0  0  0  0  0  0  0  0  0
   -2.0484   -0.8316   -0.3374 C   0  0  0  0  0  0  0  0  0  0  0  0
   -1.1221   -1.5795   -1.2809 C   0  0  0  0  0  0  0  0  0  0  0  0
   -1.4653   -1.9533   -2.4083 O   0  0  0  0  0  0  0  0  0  0  0  0
    0.2651   -1.8326   -0.7220 C   0  0  0  0  0  0  0  0  0  0  0  0
    0.7672   -0.8105    0.1281 O   0  0  0  0  0  0  0  0  0  0  0  0
    2.2279    2.6085    1.4324 H   0  0  0  0  0  0  0  0  0  0  0  0
    2.5826    1.0908    0.5821 H   0  0  0  0  0  0  0  0  0  0  0  0
    1.7367    2.4162   -0.2562 H   0  0  0  0  0  0  0  0  0  0  0  0
    0.6435    0.8537    2.1346 H   0  0  0  0  0  0  0  0  0  0  0  0
   -0.1900    2.1675    1.3227 H   0  0  0  0  0  0  0  0  0  0  0  0
   -0.1456    0.8013   -0.8228 H   0  0  0  0  0  0  0  0  0  0  0  0
   -2.6570   -1.5726    0.1919 H   0  0  0  0  0  0  0  0  0  0  0  0
   -2.7038   -0.1773   -0.9276 H   0  0  0  0  0  0  0  0  0  0  0  0
    0.9705   -1.9514   -1.5512 H   0  0  0  0  0  0  0  0  0  0  0  0
    0.2393   -2.7685   -0.1545 H   0  0  0  0  0  0  0  0  0  0  0  0
  1 11  1  0
  2 14  1  0
  2 13  1  0
  1  2  1  0
  1 10  1  0
  1 12  1  0
  2  3  1  0
  3  9  1  0
  8  9  1  0
  3 15  1  0
  3  4  1  0
  8 18  1  0
  8 19  1  0
  6  8  1  0
  4  5  1  0
  5  6  1  0
  6  7  2  0
  5 16  1  0
  5 17  1  0
M  END
$$$$

     RDKit          3D

 17 19  0  0  0  0  0  0  0  0999 V2000
    1.9745    0.9595   -1.0531 O   0  0  0  0  0  0  0  0  0  0  0  0
    0.9780    0.4563   -0.5683 C   0  0  0  0  0  0  0  0  0  0  0  0
   -0.4393    0.5046   -0.7475 C   0  0  0  0  0  0  0  0  0  0  0  0
   -1.2748    1.7262   -0.8474 C   0  0  0  0  0  0  0  0  0  0  0  0
   -1.0574    0.8441   -2.0213 N   0  0  0  0  0  0  0  0  0  0  0  0
   -0.6613   -0.7849   -0.0637 C   0  0  0  0  0  0  0  0  0  0  0  0
    0.7054   -0.5131    0.4515 C   0  0  0  0  0  0  0  0  0  0  0  0
    1.6590   -1.2844    1.2731 C   0  0  0  0  0  0  0  0  0  0  0  0
    0.9221   -0.1471    1.8616 N   0  0  0  0  0  0  0  0  0  0  0  0
   -2.2430    1.6979   -0.3645 H   0  0  0  0  0  0  0  0  0  0  0  0
   -0.7618    2.6799   -0.8657 H   0  0  0  0  0  0  0  0  0  0  0  0
   -1.8921    0.2874   -2.2071 H   0  0  0  0  0  0  0  0  0  0  0  0
   -0.7193   -1.6635   -0.7306 H   0  0  0  0  0  0  0  0  0  0  0  0
   -1.4887   -0.8661    0.6555 H   0  0  0  0  0  0  0  0  0  0  0  0
    2.7246   -1.1333    1.1295 H   0  0  0  0  0  0  0  0  0  0  0  0
    1.3916   -2.2704    1.6246 H   0  0  0  0  0  0  0  0  0  0  0  0
    0.1823   -0.4931    2.4733 H   0  0  0  0  0  0  0  0  0  0  0  0
  4 11  1  0
  9 17  1  0
  4 10  1  0
  7  9  1  0
  8  9  1  0
  3  4  1  0
  4  5  1  0
  1  2  2  0
  6 13  1  0
  2  3  1  0
  2  7  1  0
  3  6  1  0
  3  5  1  0
  6  7  1  0
  7  8  1  0
  6 14  1  0
  8 16  1  0
  8 15  1  0
  5 12  1  0
M  END
$$$$

     RDKit          3D

 18 21  0  0  0  0  0  0  0  0999 V2000
   -0.4710    0.1660    1.6624 C   0  0  0  0  0  0  0  0  0  0  0  0
   -1.4076    0.5651    0.5166 C   0  0  0  0  0  0  0  0  0  0  0  0
   -0.7641    0.4668   -0.8665 C   0  0  0  0  0  0  0  0  0  0  0  0
   -0.0115   -0.8704   -1.1501 C   0  0  0  0  0  0  0  0  0  0  0  0
    1.0156   -0.0336   -1.7417 C   0  0  0  0  0  0  0  0  0  0  0  0
    1.5465    0.2293   -0.3964 C   0  0  0  0  0  0  0  0  0  0  0  0
    0.5628    1.1273   -1.0182 N   0  0  0  0  0  0  0  0  0  0  0  0
    0.9943   -1.0863    0.0339 C   0  0  0  0  0  0  0  0  0  0  0  0
    0.2912   -1.1253    1.3773 C   0  0  0  0  0  0  0  0  0  0  0  0
    0.2391    0.9798    1.8539 H   0  0  0  0  0  0  0  0  0  0  0  0
   -1.0643    0.0422    2.5755 H   0  0  0  0  0  0  0  0  0  0  0  0
   -1.7747    1.5841    0.6877 H   0  0  0  0  0  0  0  0  0  0  0  0
   -2.2874   -0.0905    0.5384 H   0  0  0  0  0  0  0  0  0  0  0  0
   -1.4733    0.7492   -1.6564 H   0  0  0  0  0  0  0  0  0  0  0  0
   -0.5076   -1.7112   -1.6236 H   0  0  0  0  0  0  0  0  0  0  0  0
    1.5141   -0.0866   -2.6828 H   0  0  0  0  0  0  0  0  0  0  0  0
    2.5990    0.4339   -0.2936 H   0  0  0  0  0  0  0  0  0  0  0  0
    0.9989   -1.3397    2.1836 H   0  0  0  0  0  0  0  0  0  0  0  0
  5 16  1  0
  4 15  1  0
  4  5  1  0
  5  7  1  0
  5  6  1  0
  3  4  1  0
  4  8  1  0
  3 14  1  0
  3  7  1  0
  2  3  1  0
  1 11  1  0
  6  8  1  0
  8  9  1  0
  6  7  1  0
  6 17  1  0
  2 12  1  0
  1  2  1  0
  2 13  1  0
  1  9  1  0
  1 10  1  0
  9 18  1  0
M  END
$$$$

     RDKit          3D

 16 17  0  0  0  0  0  0  0  0999 V2000
    0.5085   -1.6645   -2.2832 O   0  0  0  0  0  0  0  0  0  0  0  0
    0.6399   -0.7190   -1.5071 C   0  0  0  0  0  0  0  0  0  0  0  0
    0.5272    0.6188   -1.7559 O   0  0  0  0  0  0  0  0  0  0  0  0
    0.9836    0.9516   -0.3840 C   0  0  0  0  0  0  0  0  0  0  0  0
   -0.1105    1.6322    0.4599 C   0  0  0  0  0  0  0  0  0  0  0  0
   -1.2569    0.9827    0.6350 C   0  0  0  0  0  0  0  0  0  0  0  0
   -1.1809   -0.5906    0.6745 C   0  0  0  0  0  0  0  0  0  0  0  0
    0.1796   -1.0862    0.9175 N   0  0  0  0  0  0  0  0  0  0  0  0
    1.1610   -0.5793   -0.1011 C   0  0  0  0  0  0  0  0  0  0  0  0
    1.8391    1.6519   -0.5492 H   0  0  0  0  0  0  0  0  0  0  0  0
   -0.0110    2.6968    0.7245 H   0  0  0  0  0  0  0  0  0  0  0  0
   -2.2364    1.4319    0.8892 H   0  0  0  0  0  0  0  0  0  0  0  0
   -1.7802   -0.9762    1.4859 H   0  0  0  0  0  0  0  0  0  0  0  0
   -1.5688   -1.0129   -0.2667 H   0  0  0  0  0  0  0  0  0  0  0  0
    0.2994   -2.0884    1.1798 H   0  0  0  0  0  0  0  0  0  0  0  0
    2.0064   -1.2489   -0.1192 H   0  0  0  0  0  0  0  0  0  0  0  0
  4 10  1  0
  9 16  1  0
  3  4  1  0
  4  9  1  0
  4  5  1  0
  2  3  1  0
  5 11  1  0
  2  9  1  0
  8  9  1  0
  1  2  2  0
  5  6  2  0
  7 13  1  0
  6  7  1  0
  6 12  1  0
  7  8  1  0
  8 15  1  0
  7 14  1  0
M  END
$$$$

     RDKit          3D

 14 14  0  0  0  0  0  0  0  0999 V2000
   -2.4861   -0.7329   -1.3714 O   0  0  0  0  0  0  0  0  0  0  0  0
   -1.3774   -0.4641   -0.9260 C   0  0  0  0  0  0  0  0  0  0  0  0
   -0.9955    0.8464   -0.8141 N   0  0  0  0  0  0  0  0  0  0  0  0
    0.1730    1.4401   -0.4220 C   0  0  0  0  0  0  0  0  0  0  0  0
    1.1995    0.9171    0.2533 C   0  0  0  0  0  0  0  0  0  0  0  0
    1.2630   -0.4421    0.8425 C   0  0  0  0  0  0  0  0  0  0  0  0
    2.2499   -0.7462    1.5095 O   0  0  0  0  0  0  0  0  0  0  0  0
    0.0815   -1.3704    0.6847 C   0  0  0  0  0  0  0  0  0  0  0  0
   -0.4665   -1.4166   -0.6271 O   0  0  0  0  0  0  0  0  0  0  0  0
   -1.6941    1.4459   -1.2496 H   0  0  0  0  0  0  0  0  0  0  0  0
    0.2356    2.4973   -0.6985 H   0  0  0  0  0  0  0  0  0  0  0  0
    2.0653    1.5281    0.4788 H   0  0  0  0  0  0  0  0  0  0  0  0
   -0.6840   -1.1228    1.4277 H   0  0  0  0  0  0  0  0  0  0  0  0
    0.4360   -2.3797    0.9123 H   0  0  0  0  0  0  0  0  0  0  0  0
  8 13  1  0
  8 14  1  0
  6  8  1  0
  8  9  1  0
  6  7  2  0
  5  6  1  0
  5 12  1  0
  4  5  2  0
  3  4  1  0
  3 10  1  0
  2  3  1  0
  2  9  1  0
  4 11  1  0
  1  2  2  0
M  END
$$$$

     RDKit          3D

 18 19  0  0  0  0  0  0  0  0999 V2000
   -1.8153    0.3623   -0.2161 N   0  0  0  0  0  0  0  0  0  0  0  0
   -0.4179    0.5695    0.3467 C   0  0  0  0  0  0  0  0  0  0  0  0
    0.6255    1.3012   -0.6672 C   0  0  0  0  0  0  0  0  0  0  0  0
    1.2109   -0.1186   -1.0640 C   0  0  0  0  0  0  0  0  0  0  0  0
    0.5306   -0.6426    0.2640 C   0  0  0  0  0  0  0  0  0  0  0  0
   -0.0755   -1.6171    1.3407 C   0  0  0  0  0  0  0  0  0  0  0  0
    0.2966   -2.0299    0.0227 N   0  0  0  0  0  0  0  0  0  0  0  0
    1.3692    2.4627    0.0115 C   0  0  0  0  0  0  0  0  0  0  0  0
    1.6201    3.5393    0.3453 N   0  0  0  0  0  0  0  0  0  0  0  0
   -1.9506   -0.8100    0.0238 H   0  0  0  0  0  0  0  0  0  0  0  0
   -2.5385    0.7768    0.4465 H   0  0  0  0  0  0  0  0  0  0  0  0
   -0.5285    1.4738    1.0320 H   0  0  0  0  0  0  0  0  0  0  0  0
    0.1834    1.9229   -1.5307 H   0  0  0  0  0  0  0  0  0  0  0  0
    0.5959   -0.6154   -1.8436 H   0  0  0  0  0  0  0  0  0  0  0  0
    2.2749   -0.0919   -1.7808 H   0  0  0  0  0  0  0  0  0  0  0  0
    0.1880   -2.4382    2.0994 H   0  0  0  0  0  0  0  0  0  0  0  0
   -1.0934   -1.5083    1.6576 H   0  0  0  0  0  0  0  0  0  0  0  0
   -0.4753   -2.5364   -0.4878 H   0  0  0  0  0  0  0  0  0  0  0  0
  7 18  1  0
  1 10  1  0
  6  7  1  0
  5  7  1  0
  6 17  1  0
  2 12  1  0
  5  6  1  0
  6 16  1  0
  1 11  1  0
  1  2  1  0
  2  5  1  0
  2  3  1  0
  4  5  1  0
  4 14  1  0
  3  4  1  0
  4 15  1  0
  3  8  1  0
  3 13  1  0
  8  9  3  0
M  END
$$$$

     RDKit          3D

 16 16  0  0  0  0  0  0  0  0999 V2000
    2.6728   -2.1675    1.4581 O   0  0  0  0  0  0  0  0  0  0  0  0
    1.5480   -2.1867    0.9591 C   0  0  0  0  0  0  0  0  0  0  0  0
    1.0457   -1.1467   -0.0024 C   0  0  0  0  0  0  0  0  0  0  0  0
    0.2545   -0.0905    0.7517 C   0  0  0  0  0  0  0  0  0  0  0  0
   -0.5230    0.8008   -0.1357 C   0  0  0  0  0  0  0  0  0  0  0  0
    0.0328    1.4488   -1.1706 N   0  0  0  0  0  0  0  0  0  0  0  0
   -1.0170    2.1196   -1.6618 N   0  0  0  0  0  0  0  0  0  0  0  0
   -2.2064    1.9640   -1.0594 N   0  0  0  0  0  0  0  0  0  0  0  0
   -1.8909    1.1164   -0.0794 C   0  0  0  0  0  0  0  0  0  0  0  0
    0.8089   -2.9610    1.2531 H   0  0  0  0  0  0  0  0  0  0  0  0
    1.8972   -0.6909   -0.5285 H   0  0  0  0  0  0  0  0  0  0  0  0
    0.4386   -1.6667   -0.7605 H   0  0  0  0  0  0  0  0  0  0  0  0
   -0.4277   -0.5659    1.4708 H   0  0  0  0  0  0  0  0  0  0  0  0
    0.9377    0.5108    1.3600 H   0  0  0  0  0  0  0  0  0  0  0  0
   -0.9206    2.7317   -2.4744 H   0  0  0  0  0  0  0  0  0  0  0  0
   -2.6507    0.7838    0.6200 H   0  0  0  0  0  0  0  0  0  0  0  0
  9 16  1  0
  8  9  2  0
  5  9  1  0
  4 13  1  0
  7  8  1  0
  4  5  1  0
  5  6  2  0
  4 14  1  0
  3  4  1  0
  6  7  1  0
  7 15  1  0
  3 12  1  0
  1  2  2  0
  2  3  1  0
  3 11  1  0
  2 10  1  0
M  END
$$$$

     RDKit          3D

 11 11  0  0  0  0  0  0  0  0999 V2000
    0.2931    0.3784   -2.3484 O   0  0  0  0  0  0  0  0  0  0  0  0
    0.7454    0.0531   -1.1299 C   0  0  0  0  0  0  0  0  0  0  0  0
   -0.0310   -0.0723   -0.0116 C   0  0  0  0  0  0  0  0  0  0  0  0
   -1.3236    0.0361    0.2287 O   0  0  0  0  0  0  0  0  0  0  0  0
   -1.7683    0.0909    1.4914 C   0  0  0  0  0  0  0  0  0  0  0  0
   -2.9556    0.1174    1.7891 O   0  0  0  0  0  0  0  0  0  0  0  0
    0.8119   -0.4308    1.0008 O   0  0  0  0  0  0  0  0  0  0  0  0
    2.1103   -0.4948    0.4829 N   0  0  0  0  0  0  0  0  0  0  0  0
    2.0423   -0.1991   -0.8128 N   0  0  0  0  0  0  0  0  0  0  0  0
    1.0583    0.3907   -2.9497 H   0  0  0  0  0  0  0  0  0  0  0  0
   -0.9828    0.1305    2.2596 H   0  0  0  0  0  0  0  0  0  0  0  0
  1  2  1  0
  1 10  1  0
  2  3  2  0
  2  9  1  0
  3  4  1  0
  3  7  1  0
  4  5  1  0
  5  6  2  0
  5 11  1  0
  7  8  1  0
  8  9  2  0
M  END
$$$$

     RDKit          3D

 21 22  0  0  0  0  0  0  0  0999 V2000
   -0.5425    2.7842   -0.0083 C   0  0  0  0  0  0  0  0  0  0  0  0
    0.2780    1.5179    0.1803 C   0  0  0  0  0  0  0  0  0  0  0  0
   -0.0963    0.9354    1.4803 O   0  0  0  0  0  0  0  0  0  0  0  0
   -0.5055   -0.4428    1.3264 C   0  0  0  0  0  0  0  0  0  0  0  0
    0.1009   -1.6779    1.8385 C   0  0  0  0  0  0  0  0  0  0  0  0
    0.6929   -1.1507    0.5795 C   0  0  0  0  0  0  0  0  0  0  0  0
    0.3268   -0.7731   -0.7874 C   0  0  0  0  0  0  0  0  0  0  0  0
    0.1205   -1.8373   -1.8193 C   0  0  0  0  0  0  0  0  0  0  0  0
    0.1523    0.5542   -1.0045 C   0  0  0  0  0  0  0  0  0  0  0  0
   -0.4878    3.4218    0.8802 H   0  0  0  0  0  0  0  0  0  0  0  0
   -0.1956    3.3528   -0.8834 H   0  0  0  0  0  0  0  0  0  0  0  0
   -1.6052    2.5478   -0.1558 H   0  0  0  0  0  0  0  0  0  0  0  0
    1.3425    1.8068    0.2946 H   0  0  0  0  0  0  0  0  0  0  0  0
   -1.5312   -0.5930    0.9685 H   0  0  0  0  0  0  0  0  0  0  0  0
    0.6562   -1.5859    2.7706 H   0  0  0  0  0  0  0  0  0  0  0  0
   -0.4339   -2.6230    1.7842 H   0  0  0  0  0  0  0  0  0  0  0  0
    1.7178   -0.8484    0.7619 H   0  0  0  0  0  0  0  0  0  0  0  0
   -0.8410   -1.6769   -2.3217 H   0  0  0  0  0  0  0  0  0  0  0  0
    0.0637   -2.8188   -1.3443 H   0  0  0  0  0  0  0  0  0  0  0  0
    0.9283   -1.8382   -2.5677 H   0  0  0  0  0  0  0  0  0  0  0  0
   -0.1408    0.9453   -1.9725 H   0  0  0  0  0  0  0  0  0  0  0  0
  4 14  1  0
  5 15  1  0
  3  4  1  0
  4  5  1  0
  4  6  1  0
  2  3  1  0
  5 16  1  0
  5  6  1  0
  1 11  1  0
  1 10  1  0
  1  2  1  0
  1 12  1  0
  2 13  1  0
  2  9  1  0
  6 17  1  0
  6  7  1  0
  7  9  2  0
  9 21  1  0
  7  8  1  0
  8 18  1  0
  8 20  1  0
  8 19  1  0
M  END
$$$$

     RDKit          3D

 19 21  0  0  0  0  0  0  0  0999 V2000
    1.0047   -1.3794    1.6658 C   0  0  0  0  0  0  0  0  0  0  0  0
    1.2444   -0.4439    0.4826 C   0  0  0  0  0  0  0  0  0  0  0  0
    0.8864   -1.0809   -0.7976 O   0  0  0  0  0  0  0  0  0  0  0  0
   -0.2359   -0.1936   -0.8724 C   0  0  0  0  0  0  0  0  0  0  0  0
   -0.4524    1.0776   -1.7128 C   0  0  0  0  0  0  0  0  0  0  0  0
   -0.7616    1.5478   -0.2388 C   0  0  0  0  0  0  0  0  0  0  0  0
   -1.9113    0.8065    0.2454 O   0  0  0  0  0  0  0  0  0  0  0  0
   -1.5410   -0.5313   -0.1453 C   0  0  0  0  0  0  0  0  0  0  0  0
    0.6183    0.8898    0.0675 C   0  0  0  0  0  0  0  0  0  0  0  0
    0.0859   -1.9667    1.6125 H   0  0  0  0  0  0  0  0  0  0  0  0
    1.0285   -0.8413    2.6370 H   0  0  0  0  0  0  0  0  0  0  0  0
    1.8151   -2.1262    1.6855 H   0  0  0  0  0  0  0  0  0  0  0  0
    2.3374   -0.3160    0.5239 H   0  0  0  0  0  0  0  0  0  0  0  0
    0.3747    1.4749   -2.2864 H   0  0  0  0  0  0  0  0  0  0  0  0
   -1.3228    1.0344   -2.3844 H   0  0  0  0  0  0  0  0  0  0  0  0
   -0.8302    2.6293   -0.0924 H   0  0  0  0  0  0  0  0  0  0  0  0
   -2.3079   -0.9719   -0.7854 H   0  0  0  0  0  0  0  0  0  0  0  0
   -1.4449   -1.1190    0.7852 H   0  0  0  0  0  0  0  0  0  0  0  0
    1.4126    1.5101   -0.3899 H   0  0  0  0  0  0  0  0  0  0  0  0
  1 11  1  0
  2  3  1  0
  3  4  1  0
  1 10  1  0
  1  2  1  0
  1 12  1  0
  2 13  1  0
  8 17  1  0
  2  9  1  0
  8 18  1  0
  4  8  1  0
  4  5  1  0
  4  9  1  0
  7  8  1  0
  5 15  1  0
  5 14  1  0
  5  6  1  0
  9 19  1  0
  6  9  1  0
  6  7  1  0
  6 16  1  0
M  END
$$$$

     RDKit          3D

 23 23  0  0  0  0  0  0  0  0999 V2000
   -0.1739   -1.7956   -1.6324 C   0  0  0  0  0  0  0  0  0  0  0  0
   -0.3823   -1.4018   -0.1762 C   0  0  0  0  0  0  0  0  0  0  0  0
   -1.7324   -0.9092   -0.0384 O   0  0  0  0  0  0  0  0  0  0  0  0
   -1.6943    0.3184    0.7143 C   0  0  0  0  0  0  0  0  0  0  0  0
   -0.3335    0.9292    0.3972 C   0  0  0  0  0  0  0  0  0  0  0  0
    0.0911    1.9949    1.3965 C   0  0  0  0  0  0  0  0  0  0  0  0
   -0.3572    1.5342   -0.8995 O   0  0  0  0  0  0  0  0  0  0  0  0
    0.5487   -0.3189    0.3960 C   0  0  0  0  0  0  0  0  0  0  0  0
    1.9024   -0.1703   -0.2861 C   0  0  0  0  0  0  0  0  0  0  0  0
   -0.2662   -0.9354   -2.3028 H   0  0  0  0  0  0  0  0  0  0  0  0
   -0.9449   -2.5112   -1.9430 H   0  0  0  0  0  0  0  0  0  0  0  0
    0.8025   -2.2604   -1.7891 H   0  0  0  0  0  0  0  0  0  0  0  0
   -0.3059   -2.3081    0.4370 H   0  0  0  0  0  0  0  0  0  0  0  0
   -1.8070    0.0667    1.7743 H   0  0  0  0  0  0  0  0  0  0  0  0
   -2.5321    0.9437    0.3940 H   0  0  0  0  0  0  0  0  0  0  0  0
    1.0679    2.4132    1.1320 H   0  0  0  0  0  0  0  0  0  0  0  0
   -0.6200    2.8295    1.3905 H   0  0  0  0  0  0  0  0  0  0  0  0
    0.1461    1.5946    2.4151 H   0  0  0  0  0  0  0  0  0  0  0  0
   -0.9298    0.9819   -1.4625 H   0  0  0  0  0  0  0  0  0  0  0  0
    0.7438   -0.5945    1.4435 H   0  0  0  0  0  0  0  0  0  0  0  0
    1.8109    0.1321   -1.3342 H   0  0  0  0  0  0  0  0  0  0  0  0
    2.4557   -1.1151   -0.2500 H   0  0  0  0  0  0  0  0  0  0  0  0
    2.5103    0.5819    0.2239 H   0  0  0  0  0  0  0  0  0  0  0  0
  4 15  1  0
  1 11  1  0
  3  4  1  0
  2  3  1  0
  4 14  1  0
  4  5  1  0
  1 10  1  0
  1  2  1  0
  1 12  1  0
  7 19  1  0
  2 13  1  0
  2  8  1  0
  5  7  1  0
  5  8  1  0
  5  6  1  0
  6 16  1  0
  8 20  1  0
  8  9  1  0
  6 18  1  0
  6 17  1  0
  9 21  1  0
  9 22  1  0
  9 23  1  0
M  END
$$$$

     RDKit          3D

 18 18  0  0  0  0  0  0  0  0999 V2000
   -1.0868   -1.7859   -1.7511 C   0  0  0  0  0  0  0  0  0  0  0  0
   -1.9554   -1.2341   -0.7161 N   0  0  0  0  0  0  0  0  0  0  0  0
   -1.1983   -0.4052    0.2276 C   0  0  0  0  0  0  0  0  0  0  0  0
   -1.0560    1.0547   -0.1749 C   0  0  0  0  0  0  0  0  0  0  0  0
    0.4004    1.3853   -0.0573 C   0  0  0  0  0  0  0  0  0  0  0  0
    1.0478    0.1400    0.5250 C   0  0  0  0  0  0  0  0  0  0  0  0
    0.0957   -0.9338    0.5235 O   0  0  0  0  0  0  0  0  0  0  0  0
    1.5673    0.3239    1.8894 C   0  0  0  0  0  0  0  0  0  0  0  0
    2.0684    0.3419    2.9810 C   0  0  0  0  0  0  0  0  0  0  0  0
   -0.3667   -2.4913   -1.3309 H   0  0  0  0  0  0  0  0  0  0  0  0
   -0.5525   -0.9974   -2.3153 H   0  0  0  0  0  0  0  0  0  0  0  0
   -1.7171   -2.3522   -2.4576 H   0  0  0  0  0  0  0  0  0  0  0  0
   -1.6530    1.6782    0.5030 H   0  0  0  0  0  0  0  0  0  0  0  0
   -1.3768    1.2364   -1.2129 H   0  0  0  0  0  0  0  0  0  0  0  0
    0.4840    2.2839    0.5604 H   0  0  0  0  0  0  0  0  0  0  0  0
    0.8318    1.5893   -1.0354 H   0  0  0  0  0  0  0  0  0  0  0  0
    1.9192   -0.1407   -0.0960 H   0  0  0  0  0  0  0  0  0  0  0  0
    2.5479    0.3071    3.9375 H   0  0  0  0  0  0  0  0  0  0  0  0
  9 18  1  0
  8  9  3  0
  6  8  1  0
  4 13  1  0
  1 10  1  0
  1 11  1  0
  6  7  1  0
  6 17  1  0
  5  6  1  0
  3  7  1  0
  1  2  1  0
  1 12  1  0
  2  3  1  0
  3  4  1  0
  4  5  1  0
  4 14  1  0
  5 15  1  0
  5 16  1  0
M  END
$$$$

     RDKit          3D

 17 17  0  0  0  0  0  0  0  0999 V2000
    0.7100   -0.8794    2.0591 C   0  0  0  0  0  0  0  0  0  0  0  0
   -0.0408    0.2506    1.6318 O   0  0  0  0  0  0  0  0  0  0  0  0
    0.1213    0.5683    0.2377 C   0  0  0  0  0  0  0  0  0  0  0  0
    1.4237    1.1733   -0.2006 C   0  0  0  0  0  0  0  0  0  0  0  0
    0.2088    2.0434   -0.0600 C   0  0  0  0  0  0  0  0  0  0  0  0
   -0.6524   -0.2464   -0.6474 C   0  0  0  0  0  0  0  0  0  0  0  0
   -1.3234   -0.9289   -1.3741 C   0  0  0  0  0  0  0  0  0  0  0  0
   -2.1464   -1.7534   -2.2202 C   0  0  0  0  0  0  0  0  0  0  0  0
   -2.0763   -1.6765   -3.4401 O   0  0  0  0  0  0  0  0  0  0  0  0
    0.4068   -1.1237    3.0827 H   0  0  0  0  0  0  0  0  0  0  0  0
    1.7806   -0.6487    2.0562 H   0  0  0  0  0  0  0  0  0  0  0  0
    0.5110   -1.7493    1.4235 H   0  0  0  0  0  0  0  0  0  0  0  0
    1.7824    0.9633   -1.2015 H   0  0  0  0  0  0  0  0  0  0  0  0
    2.2106    1.2953    0.5356 H   0  0  0  0  0  0  0  0  0  0  0  0
    0.1621    2.7314    0.7778 H   0  0  0  0  0  0  0  0  0  0  0  0
   -0.2486    2.4216   -0.9668 H   0  0  0  0  0  0  0  0  0  0  0  0
   -2.8293   -2.4408   -1.6937 H   0  0  0  0  0  0  0  0  0  0  0  0
  8  9  2  0
  8 17  1  0
  7  8  1  0
  6  7  3  0
  3  6  1  0
  5 16  1  0
  4 13  1  0
  3  5  1  0
  3  4  1  0
  2  3  1  0
  4  5  1  0
  5 15  1  0
  4 14  1  0
  1 11  1  0
  1  2  1  0
  1 10  1  0
  1 12  1  0
M  END
$$$$

     RDKit          3D

 21 20  0  0  0  0  0  0  0  0999 V2000
    1.5194   -1.1241   -0.1428 C   0  0  0  0  0  0  0  0  0  0  0  0
    0.4482   -1.4302    0.8999 C   0  0  0  0  0  0  0  0  0  0  0  0
   -0.9324   -0.8058    0.6457 C   0  0  0  0  0  0  0  0  0  0  0  0
   -1.8714   -1.3811    1.5700 O   0  0  0  0  0  0  0  0  0  0  0  0
   -1.0628    0.7161    0.8106 C   0  0  0  0  0  0  0  0  0  0  0  0
   -0.3463    1.5952   -0.2148 C   0  0  0  0  0  0  0  0  0  0  0  0
   -0.5262    1.0648   -1.5308 O   0  0  0  0  0  0  0  0  0  0  0  0
    0.3743    1.4886   -2.4515 C   0  0  0  0  0  0  0  0  0  0  0  0
    0.6789    0.8392   -3.4444 O   0  0  0  0  0  0  0  0  0  0  0  0
    2.0229   -0.1639    0.0405 H   0  0  0  0  0  0  0  0  0  0  0  0
    2.2958   -1.9072   -0.1119 H   0  0  0  0  0  0  0  0  0  0  0  0
    1.1029   -1.1217   -1.1669 H   0  0  0  0  0  0  0  0  0  0  0  0
    0.3234   -2.5231    0.9586 H   0  0  0  0  0  0  0  0  0  0  0  0
    0.8059   -1.1372    1.8947 H   0  0  0  0  0  0  0  0  0  0  0  0
   -1.2842   -1.0978   -0.3460 H   0  0  0  0  0  0  0  0  0  0  0  0
   -1.3906   -1.7169    2.3488 H   0  0  0  0  0  0  0  0  0  0  0  0
   -0.7511    1.0142    1.8195 H   0  0  0  0  0  0  0  0  0  0  0  0
   -2.1323    0.9540    0.7691 H   0  0  0  0  0  0  0  0  0  0  0  0
   -0.7712    2.6106   -0.1844 H   0  0  0  0  0  0  0  0  0  0  0  0
    0.7218    1.6389    0.0456 H   0  0  0  0  0  0  0  0  0  0  0  0
    0.7750    2.4874   -2.2096 H   0  0  0  0  0  0  0  0  0  0  0  0
  6 19  1  0
  8  9  2  0
  8 21  1  0
  7  8  1  0
  6  7  1  0
  6 20  1  0
  5  6  1  0
  3 15  1  0
  5 18  1  0
  3  5  1  0
  5 17  1  0
  3  4  1  0
  4 16  1  0
  2  3  1  0
  1 11  1  0
  2 14  1  0
  1  2  1  0
  2 13  1  0
  1 10  1  0
  1 12  1  0
M  END
$$$$

     RDKit          3D

 17 18  0  0  0  0  0  0  0  0999 V2000
    0.0848    1.5229   -1.5690 O   0  0  0  0  0  0  0  0  0  0  0  0
    0.3219    0.3444   -0.7976 C   0  0  0  0  0  0  0  0  0  0  0  0
   -0.9809   -0.0581   -0.1591 C   0  0  0  0  0  0  0  0  0  0  0  0
   -1.2524   -1.4793    0.2588 C   0  0  0  0  0  0  0  0  0  0  0  0
   -1.9327   -0.8967   -0.9013 N   0  0  0  0  0  0  0  0  0  0  0  0
    1.4476    0.6231    0.1547 C   0  0  0  0  0  0  0  0  0  0  0  0
    1.3153    0.7290    1.6577 C   0  0  0  0  0  0  0  0  0  0  0  0
    1.7740   -0.4741    1.0283 O   0  0  0  0  0  0  0  0  0  0  0  0
   -0.7716    1.3942   -2.0103 H   0  0  0  0  0  0  0  0  0  0  0  0
    0.6544   -0.4270   -1.5022 H   0  0  0  0  0  0  0  0  0  0  0  0
   -1.4252    0.7376    0.4288 H   0  0  0  0  0  0  0  0  0  0  0  0
   -0.5047   -2.2382    0.0665 H   0  0  0  0  0  0  0  0  0  0  0  0
   -1.8657   -1.6434    1.1357 H   0  0  0  0  0  0  0  0  0  0  0  0
   -1.5339   -1.2852   -1.7614 H   0  0  0  0  0  0  0  0  0  0  0  0
    2.2831    1.1128   -0.3357 H   0  0  0  0  0  0  0  0  0  0  0  0
    2.0486    1.3246    2.1879 H   0  0  0  0  0  0  0  0  0  0  0  0
    0.3375    0.7134    2.1182 H   0  0  0  0  0  0  0  0  0  0  0  0
  4 12  1  0
  5 14  1  0
  4  5  1  0
  3  5  1  0
  4 13  1  0
  3  4  1  0
  3 11  1  0
  2  3  1  0
  2 10  1  0
  1  2  1  0
  2  6  1  0
  1  9  1  0
  6  8  1  0
  6 15  1  0
  6  7  1  0
  7  8  1  0
  7 17  1  0
  7 16  1  0
M  END
$$$$

     RDKit          3D

 22 23  0  0  0  0  0  0  0  0999 V2000
    1.5659   -0.0581   -1.7894 C   0  0  0  0  0  0  0  0  0  0  0  0
    0.3946   -0.5423   -0.9890 C   0  0  0  0  0  0  0  0  0  0  0  0
    0.6451   -1.7783   -0.1753 C   0  0  0  0  0  0  0  0  0  0  0  0
   -0.9911   -0.3488   -1.5032 C   0  0  0  0  0  0  0  0  0  0  0  0
   -0.4287    0.5762   -0.5037 N   0  0  0  0  0  0  0  0  0  0  0  0
   -1.0018    0.4931    0.8242 C   0  0  0  0  0  0  0  0  0  0  0  0
   -1.0827    1.9495    1.3423 C   0  0  0  0  0  0  0  0  0  0  0  0
   -0.4522    1.5638    2.6041 O   0  0  0  0  0  0  0  0  0  0  0  0
    0.0109    0.3179    1.9794 C   0  0  0  0  0  0  0  0  0  0  0  0
    1.3725    0.6878   -2.5738 H   0  0  0  0  0  0  0  0  0  0  0  0
    2.3042    0.4123   -1.1057 H   0  0  0  0  0  0  0  0  0  0  0  0
    2.0587   -0.9267   -2.2714 H   0  0  0  0  0  0  0  0  0  0  0  0
   -0.2452   -2.1313    0.3878 H   0  0  0  0  0  0  0  0  0  0  0  0
    1.5068   -1.6306    0.5122 H   0  0  0  0  0  0  0  0  0  0  0  0
    0.9404   -2.6301   -0.8016 H   0  0  0  0  0  0  0  0  0  0  0  0
   -1.8454   -0.9390   -1.1519 H   0  0  0  0  0  0  0  0  0  0  0  0
   -1.1693    0.0844   -2.4835 H   0  0  0  0  0  0  0  0  0  0  0  0
   -1.9437   -0.0596    0.9382 H   0  0  0  0  0  0  0  0  0  0  0  0
   -2.0775    2.3932    1.5378 H   0  0  0  0  0  0  0  0  0  0  0  0
   -0.4524    2.7166    0.8187 H   0  0  0  0  0  0  0  0  0  0  0  0
   -0.1963   -0.5209    2.6657 H   0  0  0  0  0  0  0  0  0  0  0  0
    1.0872    0.3708    1.7384 H   0  0  0  0  0  0  0  0  0  0  0  0
  3 13  1  0
  1 11  1  0
  4 16  1  0
  3 14  1  0
  2  3  1  0
  3 15  1  0
  1 10  1  0
  1  2  1  0
  1 12  1  0
  4 17  1  0
  2  4  1  0
  4  5  1  0
  2  5  1  0
  5  6  1  0
  6 18  1  0
  6  9  1  0
  6  7  1  0
  9 21  1  0
  9 22  1  0
  8  9  1  0
  7 20  1  0
  7 19  1  0
  7  8  1  0
M  END
$$$$

     RDKit          3D

 19 21  0  0  0  0  0  0  0  0999 V2000
    0.1417    0.3138    1.5564 C   0  0  0  0  0  0  0  0  0  0  0  0
    0.8269    1.2427    0.5484 C   0  0  0  0  0  0  0  0  0  0  0  0
    1.1853    0.5284   -0.7539 C   0  0  0  0  0  0  0  0  0  0  0  0
    1.4922   -0.8791   -0.5070 O   0  0  0  0  0  0  0  0  0  0  0  0
    0.1890   -1.2538   -1.0351 C   0  0  0  0  0  0  0  0  0  0  0  0
   -1.1385   -0.8768   -0.3255 C   0  0  0  0  0  0  0  0  0  0  0  0
   -1.1791   -0.3014    1.0905 C   0  0  0  0  0  0  0  0  0  0  0  0
   -1.3412    0.2187   -1.2787 O   0  0  0  0  0  0  0  0  0  0  0  0
    0.0383    0.1096   -1.6966 C   0  0  0  0  0  0  0  0  0  0  0  0
    0.8275   -0.4980    1.8389 H   0  0  0  0  0  0  0  0  0  0  0  0
   -0.0400    0.8765    2.4818 H   0  0  0  0  0  0  0  0  0  0  0  0
    1.7514    1.6045    1.0102 H   0  0  0  0  0  0  0  0  0  0  0  0
    0.2006    2.1234    0.3511 H   0  0  0  0  0  0  0  0  0  0  0  0
    2.0055    1.0249   -1.2845 H   0  0  0  0  0  0  0  0  0  0  0  0
    0.2028   -2.1174   -1.7054 H   0  0  0  0  0  0  0  0  0  0  0  0
   -1.9264   -1.6320   -0.4622 H   0  0  0  0  0  0  0  0  0  0  0  0
   -1.9652    0.4658    1.1462 H   0  0  0  0  0  0  0  0  0  0  0  0
   -1.4733   -1.0897    1.7995 H   0  0  0  0  0  0  0  0  0  0  0  0
    0.2022    0.1399   -2.7740 H   0  0  0  0  0  0  0  0  0  0  0  0
  1 11  1  0
  2 12  1  0
  7 18  1  0
  2 13  1  0
  1  2  1  0
  1  7  1  0
  1 10  1  0
  2  3  1  0
  7 17  1  0
  6  7  1  0
  6  8  1  0
  8  9  1  0
  6 16  1  0
  5  6  1  0
  3 14  1  0
  3  9  1  0
  3  4  1  0
  9 19  1  0
  5  9  1  0
  4  5  1  0
  5 15  1  0
M  END
$$$$

     RDKit          3D

 15 16  0  0  0  0  0  0  0  0999 V2000
    0.4396    0.9088    2.5524 O   0  0  0  0  0  0  0  0  0  0  0  0
    0.2812    0.3199    1.4955 C   0  0  0  0  0  0  0  0  0  0  0  0
    0.4031   -1.2050    1.2695 C   0  0  0  0  0  0  0  0  0  0  0  0
    0.1049   -1.4330   -0.2580 C   0  0  0  0  0  0  0  0  0  0  0  0
   -0.1448   -0.0600   -0.7149 C   0  0  0  0  0  0  0  0  0  0  0  0
   -0.0509    0.9083    0.2370 C   0  0  0  0  0  0  0  0  0  0  0  0
   -0.3219    2.0996   -0.4164 C   0  0  0  0  0  0  0  0  0  0  0  0
   -0.5750    1.8878   -1.7222 N   0  0  0  0  0  0  0  0  0  0  0  0
   -0.4589    0.5445   -1.8800 N   0  0  0  0  0  0  0  0  0  0  0  0
    1.4155   -1.5347    1.5211 H   0  0  0  0  0  0  0  0  0  0  0  0
   -0.3293   -1.7290    1.8908 H   0  0  0  0  0  0  0  0  0  0  0  0
   -0.7683   -2.0788   -0.3887 H   0  0  0  0  0  0  0  0  0  0  0  0
    0.9671   -1.8856   -0.7563 H   0  0  0  0  0  0  0  0  0  0  0  0
   -0.3517    3.1089   -0.0266 H   0  0  0  0  0  0  0  0  0  0  0  0
   -0.6103    0.1481   -2.8032 H   0  0  0  0  0  0  0  0  0  0  0  0
  4 12  1  0
  3 10  1  0
  7 14  1  0
  7  8  2  0
  8  9  1  0
  6  7  1  0
  9 15  1  0
  5  9  1  0
  5  6  2  0
  2  6  1  0
  1  2  2  0
  4  5  1  0
  2  3  1  0
  3  4  1  0
  4 13  1  0
  3 11  1  0
M  END
$$$$

     RDKit          3D

 15 15  0  0  0  0  0  0  0  0999 V2000
   -1.8489    0.7265    0.0827 C   0  0  0  0  0  0  0  0  0  0  0  0
   -0.4410    0.2843   -0.0066 C   0  0  0  0  0  0  0  0  0  0  0  0
    0.2570   -0.6463   -0.7370 C   0  0  0  0  0  0  0  0  0  0  0  0
   -0.1711   -1.4240   -1.7313 N   0  0  0  0  0  0  0  0  0  0  0  0
    1.5588   -0.7532   -0.3403 N   0  0  0  0  0  0  0  0  0  0  0  0
    1.6625    0.0545    0.6983 C   0  0  0  0  0  0  0  0  0  0  0  0
    2.7589    0.2403    1.4471 O   0  0  0  0  0  0  0  0  0  0  0  0
    0.5509    0.8986    0.7752 N   0  0  0  0  0  0  0  0  0  0  0  0
   -2.0134    1.4662   -0.7000 H   0  0  0  0  0  0  0  0  0  0  0  0
   -2.0661    1.1654    1.0560 H   0  0  0  0  0  0  0  0  0  0  0  0
   -2.5243   -0.1322   -0.0792 H   0  0  0  0  0  0  0  0  0  0  0  0
    0.4651   -2.1065   -2.1648 H   0  0  0  0  0  0  0  0  0  0  0  0
   -1.1685   -1.5750   -1.8858 H   0  0  0  0  0  0  0  0  0  0  0  0
    2.4384   -0.0219    2.3520 H   0  0  0  0  0  0  0  0  0  0  0  0
    0.5414    1.8234    1.2335 H   0  0  0  0  0  0  0  0  0  0  0  0
  4 13  1  0
  4 12  1  0
  3  4  1  0
  3  5  1  0
  2  3  2  0
  1 10  1  0
  5  6  2  0
  1  2  1  0
  2  8  1  0
  1 11  1  0
  1  9  1  0
  6  8  1  0
  6  7  1  0
  7 14  1  0
  8 15  1  0
M  END
$$$$

     RDKit          3D

 16 16  0  0  0  0  0  0  0  0999 V2000
    2.1047    1.6679   -0.3975 C   0  0  0  0  0  0  0  0  0  0  0  0
    1.3216    1.5902    0.8179 O   0  0  0  0  0  0  0  0  0  0  0  0
    0.2992    0.7369    0.6743 C   0  0  0  0  0  0  0  0  0  0  0  0
   -0.5639    0.6934   -0.2928 N   0  0  0  0  0  0  0  0  0  0  0  0
   -1.2922   -0.4646    0.0021 N   0  0  0  0  0  0  0  0  0  0  0  0
   -2.0300   -1.1503   -1.0438 C   0  0  0  0  0  0  0  0  0  0  0  0
   -0.6439   -1.1413    1.0543 C   0  0  0  0  0  0  0  0  0  0  0  0
   -0.6898   -2.3316    1.3581 O   0  0  0  0  0  0  0  0  0  0  0  0
    0.2110   -0.2393    1.5950 N   0  0  0  0  0  0  0  0  0  0  0  0
    2.2385    0.6692   -0.8243 H   0  0  0  0  0  0  0  0  0  0  0  0
    3.0996    2.0652   -0.1445 H   0  0  0  0  0  0  0  0  0  0  0  0
    1.6235    2.3478   -1.1190 H   0  0  0  0  0  0  0  0  0  0  0  0
   -2.7437   -0.4503   -1.4908 H   0  0  0  0  0  0  0  0  0  0  0  0
   -2.5561   -1.9832   -0.5941 H   0  0  0  0  0  0  0  0  0  0  0  0
   -1.3313   -1.5077   -1.8097 H   0  0  0  0  0  0  0  0  0  0  0  0
    0.9528   -0.5022    2.2149 H   0  0  0  0  0  0  0  0  0  0  0  0
  6 13  1  0
  6 15  1  0
  6 14  1  0
  5  6  1  0
  7  8  2  0
  5  7  1  0
  4  5  1  0
  7  9  1  0
  3  4  2  0
  3  9  1  0
  9 16  1  0
  2  3  1  0
  1 11  1  0
  1  2  1  0
  1 10  1  0
  1 12  1  0
M  END
$$$$

     RDKit          3D

 18 20  0  0  0  0  0  0  0  0999 V2000
    1.7748    1.6647   -0.7228 C   0  0  0  0  0  0  0  0  0  0  0  0
    1.5728    0.2626   -0.7660 O   0  0  0  0  0  0  0  0  0  0  0  0
    0.3753   -0.2720   -0.1749 C   0  0  0  0  0  0  0  0  0  0  0  0
    0.4527   -0.7605    1.3198 C   0  0  0  0  0  0  0  0  0  0  0  0
   -0.8770   -0.1544    1.5790 N   0  0  0  0  0  0  0  0  0  0  0  0
   -1.8979   -0.3646    0.5014 C   0  0  0  0  0  0  0  0  0  0  0  0
   -1.6353   -1.3582   -0.5614 C   0  0  0  0  0  0  0  0  0  0  0  0
   -0.3652   -1.3029   -1.0126 C   0  0  0  0  0  0  0  0  0  0  0  0
   -0.7487    0.5837    0.3465 C   0  0  0  0  0  0  0  0  0  0  0  0
    1.6939    2.0366    0.3014 H   0  0  0  0  0  0  0  0  0  0  0  0
    2.7840    1.8761   -1.0973 H   0  0  0  0  0  0  0  0  0  0  0  0
    1.0481    2.1597   -1.3744 H   0  0  0  0  0  0  0  0  0  0  0  0
    0.4927   -1.8482    1.4787 H   0  0  0  0  0  0  0  0  0  0  0  0
    1.2643   -0.3155    1.9065 H   0  0  0  0  0  0  0  0  0  0  0  0
   -2.8911    0.0287    0.6552 H   0  0  0  0  0  0  0  0  0  0  0  0
   -2.4039   -2.0145   -0.9488 H   0  0  0  0  0  0  0  0  0  0  0  0
    0.0880   -1.8783   -1.7993 H   0  0  0  0  0  0  0  0  0  0  0  0
   -0.7277    1.6569    0.3691 H   0  0  0  0  0  0  0  0  0  0  0  0
  7 16  1  0
  8 17  1  0
  7  8  2  0
  6  7  1  0
  3  8  1  0
  1 11  1  0
  6 15  1  0
  6  9  1  0
  5  6  1  0
  2  3  1  0
  1  2  1  0
  3  9  1  0
  3  4  1  0
  9 18  1  0
  5  9  1  0
  1 10  1  0
  1 12  1  0
  4  5  1  0
  4 14  1  0
  4 13  1  0
M  END
$$$$

     RDKit          3D

 16 16  0  0  0  0  0  0  0  0999 V2000
   -0.9937    1.0298    1.1544 O   0  0  0  0  0  0  0  0  0  0  0  0
   -0.1376    0.0539    0.5213 C   0  0  0  0  0  0  0  0  0  0  0  0
   -0.8941   -0.9712   -0.3750 C   0  0  0  0  0  0  0  0  0  0  0  0
   -0.6106   -0.0396   -1.5697 C   0  0  0  0  0  0  0  0  0  0  0  0
    0.6090    0.4968   -0.7790 C   0  0  0  0  0  0  0  0  0  0  0  0
    0.8813    1.9079   -0.9249 C   0  0  0  0  0  0  0  0  0  0  0  0
    1.1291    3.0303   -1.0861 N   0  0  0  0  0  0  0  0  0  0  0  0
    0.7107   -0.5384    1.5393 C   0  0  0  0  0  0  0  0  0  0  0  0
    1.4102   -1.0259    2.3849 C   0  0  0  0  0  0  0  0  0  0  0  0
   -1.4831    0.5316    1.8344 H   0  0  0  0  0  0  0  0  0  0  0  0
   -0.4180   -1.9555   -0.4601 H   0  0  0  0  0  0  0  0  0  0  0  0
   -1.9541   -1.1151   -0.1459 H   0  0  0  0  0  0  0  0  0  0  0  0
   -1.4061    0.6951   -1.7466 H   0  0  0  0  0  0  0  0  0  0  0  0
   -0.3836   -0.5458   -2.5126 H   0  0  0  0  0  0  0  0  0  0  0  0
    1.5090   -0.1055   -0.9755 H   0  0  0  0  0  0  0  0  0  0  0  0
    2.0316   -1.4483    3.1413 H   0  0  0  0  0  0  0  0  0  0  0  0
  9 16  1  0
  8  9  3  0
  6  7  3  0
  2  8  1  0
  1 10  1  0
  5  6  1  0
  5 15  1  0
  2  5  1  0
  4  5  1  0
  1  2  1  0
  2  3  1  0
  3 11  1  0
  3  4  1  0
  3 12  1  0
  4 14  1  0
  4 13  1  0
M  END
$$$$

     RDKit          3D

 16 17  0  0  0  0  0  0  0  0999 V2000
    0.3898   -1.6675    0.2955 C   0  0  0  0  0  0  0  0  0  0  0  0
    0.3810   -0.4627   -0.5802 C   0  0  0  0  0  0  0  0  0  0  0  0
   -0.6660   -0.2998   -1.6274 C   0  0  0  0  0  0  0  0  0  0  0  0
   -0.8924    1.1326   -1.0872 C   0  0  0  0  0  0  0  0  0  0  0  0
   -1.6273    2.0815   -1.2676 O   0  0  0  0  0  0  0  0  0  0  0  0
    0.1452    0.9470   -0.0657 C   0  0  0  0  0  0  0  0  0  0  0  0
    1.4637    0.5009   -0.5442 N   0  0  0  0  0  0  0  0  0  0  0  0
   -0.0595    1.2224    1.3192 C   0  0  0  0  0  0  0  0  0  0  0  0
   -0.2048    1.5152    2.4729 C   0  0  0  0  0  0  0  0  0  0  0  0
    0.8874   -2.4932   -0.2146 H   0  0  0  0  0  0  0  0  0  0  0  0
    0.9166   -1.4926    1.2404 H   0  0  0  0  0  0  0  0  0  0  0  0
   -0.6312   -1.9894    0.5335 H   0  0  0  0  0  0  0  0  0  0  0  0
   -1.5509   -0.9420   -1.5427 H   0  0  0  0  0  0  0  0  0  0  0  0
   -0.3012   -0.3219   -2.6568 H   0  0  0  0  0  0  0  0  0  0  0  0
    2.0793    0.3655    0.2554 H   0  0  0  0  0  0  0  0  0  0  0  0
   -0.3299    1.9039    3.4696 H   0  0  0  0  0  0  0  0  0  0  0  0
  3 14  1  0
  1 11  1  0
  7 15  1  0
  2  7  1  0
  6  7  1  0
  2  3  1  0
  3 13  1  0
  3  4  1  0
  1  2  1  0
  1 10  1  0
  1 12  1  0
  2  6  1  0
  4  6  1  0
  4  5  2  0
  6  8  1  0
  8  9  3  0
  9 16  1  0
M  END
$$$$

     RDKit          3D

 18 18  0  0  0  0  0  0  0  0999 V2000
   -0.6525    1.5546    1.5131 O   0  0  0  0  0  0  0  0  0  0  0  0
    0.2181    0.5387    2.0013 C   0  0  0  0  0  0  0  0  0  0  0  0
    0.9124   -0.2157    0.8840 C   0  0  0  0  0  0  0  0  0  0  0  0
    0.0175   -0.4876   -0.2928 C   0  0  0  0  0  0  0  0  0  0  0  0
   -1.2026   -1.1754    0.0255 O   0  0  0  0  0  0  0  0  0  0  0  0
    0.5974   -0.8337   -1.6400 C   0  0  0  0  0  0  0  0  0  0  0  0
   -0.0149    0.5222   -1.4187 C   0  0  0  0  0  0  0  0  0  0  0  0
   -1.2588    0.8792   -2.0360 C   0  0  0  0  0  0  0  0  0  0  0  0
   -2.2451    1.1861   -2.5654 N   0  0  0  0  0  0  0  0  0  0  0  0
   -1.5050    1.0905    1.2956 H   0  0  0  0  0  0  0  0  0  0  0  0
   -0.3534   -0.1425    2.6531 H   0  0  0  0  0  0  0  0  0  0  0  0
    0.9815    1.0178    2.6312 H   0  0  0  0  0  0  0  0  0  0  0  0
    1.2942   -1.1590    1.3074 H   0  0  0  0  0  0  0  0  0  0  0  0
    1.8149    0.3582    0.5677 H   0  0  0  0  0  0  0  0  0  0  0  0
   -1.0203   -2.0540    0.4148 H   0  0  0  0  0  0  0  0  0  0  0  0
    0.0579   -1.5241   -2.2874 H   0  0  0  0  0  0  0  0  0  0  0  0
    1.6767   -0.9157   -1.7167 H   0  0  0  0  0  0  0  0  0  0  0  0
    0.6818    1.3605   -1.3366 H   0  0  0  0  0  0  0  0  0  0  0  0
  3 14  1  0
  5 15  1  0
  4  5  1  0
  1 10  1  0
  7 18  1  0
  2 11  1  0
  3  4  1  0
  2  3  1  0
  3 13  1  0
  4  7  1  0
  4  6  1  0
  7  8  1  0
  6  7  1  0
  8  9  3  0
  1  2  1  0
  2 12  1  0
  6 16  1  0
  6 17  1  0
M  END
$$$$

     RDKit          3D

 17 17  0  0  0  0  0  0  0  0999 V2000
    0.7940    1.4449   -0.5738 C   0  0  0  0  0  0  0  0  0  0  0  0
    0.1130    0.3395    0.2116 C   0  0  0  0  0  0  0  0  0  0  0  0
   -0.2674    0.7426    1.6331 C   0  0  0  0  0  0  0  0  0  0  0  0
    0.7190   -1.0481    0.1044 C   0  0  0  0  0  0  0  0  0  0  0  0
   -0.6331   -0.7943   -0.5227 C   0  0  0  0  0  0  0  0  0  0  0  0
   -1.7556   -1.3789    0.1594 O   0  0  0  0  0  0  0  0  0  0  0  0
   -0.6996   -0.8715   -1.9748 C   0  0  0  0  0  0  0  0  0  0  0  0
   -0.6305   -0.9812   -3.1266 N   0  0  0  0  0  0  0  0  0  0  0  0
    0.4138    1.5056   -1.6002 H   0  0  0  0  0  0  0  0  0  0  0  0
    1.8913    1.2958   -0.6354 H   0  0  0  0  0  0  0  0  0  0  0  0
    0.5917    2.4256   -0.1334 H   0  0  0  0  0  0  0  0  0  0  0  0
    0.6767    0.8640    2.2129 H   0  0  0  0  0  0  0  0  0  0  0  0
   -0.8522    1.6826    1.6759 H   0  0  0  0  0  0  0  0  0  0  0  0
   -0.8401   -0.0365    2.1366 H   0  0  0  0  0  0  0  0  0  0  0  0
    0.7456   -1.6200    1.0083 H   0  0  0  0  0  0  0  0  0  0  0  0
    1.5817   -1.2395   -0.5376 H   0  0  0  0  0  0  0  0  0  0  0  0
   -1.8482   -2.3305   -0.0377 H   0  0  0  0  0  0  0  0  0  0  0  0
  3 12  1  0
  1 10  1  0
  4 15  1  0
  3 13  1  0
  3 14  1  0
  2  3  1  0
  4 16  1  0
  2  4  1  0
  4  5  1  0
  1  2  1  0
  2  5  1  0
  1  9  1  0
  1 11  1  0
  5  7  1  0
  5  6  1  0
  7  8  3  0
  6 17  1  0
M  END
$$$$

     RDKit          3D

 23 23  0  0  0  0  0  0  0  0999 V2000
   -1.2258    1.7334   -0.2486 C   0  0  0  0  0  0  0  0  0  0  0  0
   -0.0228    1.2659    0.5885 C   0  0  0  0  0  0  0  0  0  0  0  0
    1.0766    0.5125   -0.3510 C   0  0  0  0  0  0  0  0  0  0  0  0
    0.7091   -0.9309   -0.4031 C   0  0  0  0  0  0  0  0  0  0  0  0
    0.7076   -1.8763   -1.6192 C   0  0  0  0  0  0  0  0  0  0  0  0
   -0.4296   -2.8373   -1.2576 C   0  0  0  0  0  0  0  0  0  0  0  0
   -0.6342   -3.1760   -0.1122 O   0  0  0  0  0  0  0  0  0  0  0  0
   -0.3284    0.5137    1.9203 C   0  0  0  0  0  0  0  0  0  0  0  0
    0.2216    1.9551    1.8625 C   0  0  0  0  0  0  0  0  0  0  0  0
   -2.0899    2.0514    0.3526 H   0  0  0  0  0  0  0  0  0  0  0  0
   -1.5709    1.0291   -1.0513 H   0  0  0  0  0  0  0  0  0  0  0  0
   -0.8987    2.6189   -0.7801 H   0  0  0  0  0  0  0  0  0  0  0  0
    1.1962    1.0431   -1.3417 H   0  0  0  0  0  0  0  0  0  0  0  0
    2.0194    0.6327    0.2122 H   0  0  0  0  0  0  0  0  0  0  0  0
   -0.4558   -0.8773   -0.2654 H   0  0  0  0  0  0  0  0  0  0  0  0
    1.1027   -1.4528    0.4540 H   0  0  0  0  0  0  0  0  0  0  0  0
    1.6551   -2.3372   -1.8596 H   0  0  0  0  0  0  0  0  0  0  0  0
    0.4074   -1.3410   -2.4962 H   0  0  0  0  0  0  0  0  0  0  0  0
   -1.1254   -3.1859   -2.1124 H   0  0  0  0  0  0  0  0  0  0  0  0
   -1.4106    0.2680    2.0252 H   0  0  0  0  0  0  0  0  0  0  0  0
    0.2213   -0.3616    2.1250 H   0  0  0  0  0  0  0  0  0  0  0  0
    1.2975    2.0378    2.1347 H   0  0  0  0  0  0  0  0  0  0  0  0
   -0.4224    2.7148    2.2232 H   0  0  0  0  0  0  0  0  0  0  0  0
  6 19  1  0
  6  7  2  0
  5  6  1  0
  4 16  1  0
  5 17  1  0
  4  5  1  0
  5 18  1  0
  4 15  1  0
  3  4  1  0
  8 20  1  0
  3 13  1  0
  8 21  1  0
  2  3  1  0
  3 14  1  0
  2  8  1  0
  8  9  1  0
  1 11  1  0
  1  2  1  0
  2  9  1  0
  1 10  1  0
  1 12  1  0
  9 23  1  0
  9 22  1  0
M  END
$$$$

     RDKit          3D

 17 18  0  0  0  0  0  0  0  0999 V2000
   -1.9182    0.4199    1.9612 C   0  0  0  0  0  0  0  0  0  0  0  0
   -1.6863    0.1215    0.8172 C   0  0  0  0  0  0  0  0  0  0  0  0
   -1.4286   -0.2829   -0.5423 C   0  0  0  0  0  0  0  0  0  0  0  0
   -0.2849   -1.1944   -0.9054 C   0  0  0  0  0  0  0  0  0  0  0  0
    0.7509   -1.5659    0.0762 O   0  0  0  0  0  0  0  0  0  0  0  0
    1.3773   -0.5425    0.8603 C   0  0  0  0  0  0  0  0  0  0  0  0
    1.5999    0.7453    0.1318 C   0  0  0  0  0  0  0  0  0  0  0  0
    0.8072    1.0971   -0.8841 C   0  0  0  0  0  0  0  0  0  0  0  0
   -0.2758    0.2385   -1.3911 C   0  0  0  0  0  0  0  0  0  0  0  0
   -2.0300    0.6884    2.9738 H   0  0  0  0  0  0  0  0  0  0  0  0
   -2.3567   -0.4316   -1.0955 H   0  0  0  0  0  0  0  0  0  0  0  0
   -0.5356   -1.9451   -1.6771 H   0  0  0  0  0  0  0  0  0  0  0  0
    2.3564   -0.9519    1.2333 H   0  0  0  0  0  0  0  0  0  0  0  0
    0.7496   -0.3615    1.7708 H   0  0  0  0  0  0  0  0  0  0  0  0
    2.3735    1.4550    0.4690 H   0  0  0  0  0  0  0  0  0  0  0  0
    0.9437    2.0651   -1.3595 H   0  0  0  0  0  0  0  0  0  0  0  0
   -0.4425    0.4451   -2.4387 H   0  0  0  0  0  0  0  0  0  0  0  0
  8 16  1  0
  9 17  1  0
  3 11  1  0
  3  9  1  0
  8  9  1  0
  4  9  1  0
  2  3  1  0
  3  4  1  0
  7  8  2  0
  1  2  3  0
  1 10  1  0
  7 15  1  0
  6  7  1  0
  4 12  1  0
  4  5  1  0
  5  6  1  0
  6 13  1  0
  6 14  1  0
M  END
$$$$

     RDKit          3D

 18 21  0  0  0  0  0  0  0  0999 V2000
   -1.8885    0.1389   -1.6452 O   0  0  0  0  0  0  0  0  0  0  0  0
   -0.8881    0.0087   -0.7111 C   0  0  0  0  0  0  0  0  0  0  0  0
    0.0668    1.2216   -0.7660 C   0  0  0  0  0  0  0  0  0  0  0  0
    1.4602    0.9200   -0.1946 C   0  0  0  0  0  0  0  0  0  0  0  0
    1.5295   -0.1355    0.9076 N   0  0  0  0  0  0  0  0  0  0  0  0
    0.8733   -1.3758    0.5711 C   0  0  0  0  0  0  0  0  0  0  0  0
    0.2225   -0.3362    1.4288 C   0  0  0  0  0  0  0  0  0  0  0  0
   -1.0688   -0.4163    0.6528 C   0  0  0  0  0  0  0  0  0  0  0  0
   -0.3909   -1.3785   -0.3334 C   0  0  0  0  0  0  0  0  0  0  0  0
   -1.5433    0.6316   -2.4279 H   0  0  0  0  0  0  0  0  0  0  0  0
   -0.4995    2.0987   -1.0336 H   0  0  0  0  0  0  0  0  0  0  0  0
   -0.2918    1.5931    0.2434 H   0  0  0  0  0  0  0  0  0  0  0  0
    2.2605    0.5990   -0.9192 H   0  0  0  0  0  0  0  0  0  0  0  0
    1.7835    1.8416    0.2327 H   0  0  0  0  0  0  0  0  0  0  0  0
    1.1652   -2.3696    0.9846 H   0  0  0  0  0  0  0  0  0  0  0  0
    0.2841   -0.2947    2.4916 H   0  0  0  0  0  0  0  0  0  0  0  0
   -2.0942   -0.4837    1.0973 H   0  0  0  0  0  0  0  0  0  0  0  0
   -0.9805   -2.2629   -0.5788 H   0  0  0  0  0  0  0  0  0  0  0  0
  4 13  1  0
  3 11  1  0
  3  4  1  0
  4 14  1  0
  4  5  1  0
  3 12  1  0
  2  3  1  0
  7 16  1  0
  5  7  1  0
  5  6  1  0
  1  2  1  0
  2  8  1  0
  2  9  1  0
  7  8  1  0
  6  7  1  0
  1 10  1  0
  8 17  1  0
  8  9  1  0
  6  9  1  0
  6 15  1  0
  9 18  1  0
M  END
$$$$

     RDKit          3D

 18 18  0  0  0  0  0  0  0  0999 V2000
    1.2832   -0.5009    1.0040 C   0  0  0  0  0  0  0  0  0  0  0  0
    0.6691    0.8928    1.0025 C   0  0  0  0  0  0  0  0  0  0  0  0
    1.6343    1.8286    0.5312 O   0  0  0  0  0  0  0  0  0  0  0  0
   -0.6372    1.1096    0.2786 C   0  0  0  0  0  0  0  0  0  0  0  0
   -0.4871    1.4841   -1.1010 O   0  0  0  0  0  0  0  0  0  0  0  0
   -1.2953    0.3326   -0.8785 C   0  0  0  0  0  0  0  0  0  0  0  0
   -0.7661   -0.8769   -1.5779 C   0  0  0  0  0  0  0  0  0  0  0  0
   -1.4139   -1.9916   -0.8715 C   0  0  0  0  0  0  0  0  0  0  0  0
   -1.8843   -2.8733   -0.2757 N   0  0  0  0  0  0  0  0  0  0  0  0
    1.5796   -0.7603    2.0282 H   0  0  0  0  0  0  0  0  0  0  0  0
    0.5985   -1.3001    0.7142 H   0  0  0  0  0  0  0  0  0  0  0  0
    2.1963   -0.5652    0.3909 H   0  0  0  0  0  0  0  0  0  0  0  0
    0.4772    1.1577    2.0515 H   0  0  0  0  0  0  0  0  0  0  0  0
    2.4475    1.6835    1.0476 H   0  0  0  0  0  0  0  0  0  0  0  0
   -1.2982    1.7447    0.8670 H   0  0  0  0  0  0  0  0  0  0  0  0
   -2.3683    0.4592   -1.0178 H   0  0  0  0  0  0  0  0  0  0  0  0
    0.3310   -0.9559   -1.5591 H   0  0  0  0  0  0  0  0  0  0  0  0
   -1.0664   -0.8684   -2.6342 H   0  0  0  0  0  0  0  0  0  0  0  0
  1 11  1  0
  8  9  3  0
  5  6  1  0
  4  5  1  0
  7 17  1  0
  7  8  1  0
  2 13  1  0
  1 10  1  0
  1  2  1  0
  1 12  1  0
  6  7  1  0
  7 18  1  0
  2  4  1  0
  2  3  1  0
  4  6  1  0
  6 16  1  0
  4 15  1  0
  3 14  1  0
M  END
$$$$

     RDKit          3D

 17 17  0  0  0  0  0  0  0  0999 V2000
   -1.5580   -1.4559    0.0521 C   0  0  0  0  0  0  0  0  0  0  0  0
   -0.6979   -0.3313    0.6182 C   0  0  0  0  0  0  0  0  0  0  0  0
    0.7422   -0.6894    0.7484 N   0  0  0  0  0  0  0  0  0  0  0  0
    1.0151   -0.0646   -0.5809 C   0  0  0  0  0  0  0  0  0  0  0  0
    2.2753    0.6437   -0.6461 C   0  0  0  0  0  0  0  0  0  0  0  0
    3.2553    1.2631   -0.7690 N   0  0  0  0  0  0  0  0  0  0  0  0
   -0.2836    0.7872   -0.3934 C   0  0  0  0  0  0  0  0  0  0  0  0
   -0.0682    2.0395    0.3605 N   0  0  0  0  0  0  0  0  0  0  0  0
   -2.5999   -1.1309   -0.0011 H   0  0  0  0  0  0  0  0  0  0  0  0
   -1.5255   -2.3464    0.6967 H   0  0  0  0  0  0  0  0  0  0  0  0
   -1.2506   -1.7613   -0.9557 H   0  0  0  0  0  0  0  0  0  0  0  0
   -1.1314    0.0253    1.5620 H   0  0  0  0  0  0  0  0  0  0  0  0
    0.9533   -1.6857    0.8050 H   0  0  0  0  0  0  0  0  0  0  0  0
    0.8992   -0.7812   -1.4005 H   0  0  0  0  0  0  0  0  0  0  0  0
   -0.9103    0.9043   -1.2893 H   0  0  0  0  0  0  0  0  0  0  0  0
    0.5572    2.7089   -0.0965 H   0  0  0  0  0  0  0  0  0  0  0  0
    0.3279    1.8747    1.2897 H   0  0  0  0  0  0  0  0  0  0  0  0
  3 13  1  0
  1 10  1  0
  2  3  1  0
  3  4  1  0
  1  9  1  0
  1  2  1  0
  1 11  1  0
  2 12  1  0
  2  7  1  0
  4 14  1  0
  4  5  1  0
  4  7  1  0
  5  6  3  0
  7  8  1  0
  7 15  1  0
  8 17  1  0
  8 16  1  0
M  END
$$$$

     RDKit          3D

 21 22  0  0  0  0  0  0  0  0999 V2000
   -1.0872    3.0207    0.6480 O   0  0  0  0  0  0  0  0  0  0  0  0
    0.0610    2.1506    0.5415 C   0  0  0  0  0  0  0  0  0  0  0  0
    0.0263    1.1742   -0.6849 C   0  0  0  0  0  0  0  0  0  0  0  0
    0.6256    0.0668    0.2394 C   0  0  0  0  0  0  0  0  0  0  0  0
    2.0504    0.0825    0.0782 O   0  0  0  0  0  0  0  0  0  0  0  0
    0.1047    0.9221    1.4741 C   0  0  0  0  0  0  0  0  0  0  0  0
    0.1467   -1.3770    0.1905 C   0  0  0  0  0  0  0  0  0  0  0  0
    0.2488   -2.2260   -1.0520 C   0  0  0  0  0  0  0  0  0  0  0  0
   -1.1162   -1.9359   -0.5118 C   0  0  0  0  0  0  0  0  0  0  0  0
   -1.8293    2.4043    0.7455 H   0  0  0  0  0  0  0  0  0  0  0  0
    0.9836    2.7557    0.6567 H   0  0  0  0  0  0  0  0  0  0  0  0
    0.7207    1.5384   -1.4842 H   0  0  0  0  0  0  0  0  0  0  0  0
   -0.9634    0.9447   -1.1880 H   0  0  0  0  0  0  0  0  0  0  0  0
    2.1431   -0.1882   -0.8455 H   0  0  0  0  0  0  0  0  0  0  0  0
   -0.8587    0.6746    1.9733 H   0  0  0  0  0  0  0  0  0  0  0  0
    0.8672    0.9683    2.2406 H   0  0  0  0  0  0  0  0  0  0  0  0
    0.3188   -1.8622    1.1562 H   0  0  0  0  0  0  0  0  0  0  0  0
    0.5143   -3.2526   -0.9054 H   0  0  0  0  0  0  0  0  0  0  0  0
    0.4916   -1.7486   -2.0363 H   0  0  0  0  0  0  0  0  0  0  0  0
   -1.6854   -2.7065   -0.0305 H   0  0  0  0  0  0  0  0  0  0  0  0
   -1.7626   -1.4059   -1.2055 H   0  0  0  0  0  0  0  0  0  0  0  0
  2 11  1  0
  6 15  1  0
  6 16  1  0
  2  6  1  0
  4  6  1  0
  1  2  1  0
  2  3  1  0
  1 10  1  0
  3 12  1  0
  3  4  1  0
  3 13  1  0
  4  5  1  0
  4  7  1  0
  5 14  1  0
  7 17  1  0
  7  9  1  0
  7  8  1  0
  9 20  1  0
  9 21  1  0
  8  9  1  0
  8 19  1  0
  8 18  1  0
M  END
$$$$

     RDKit          3D

 15 15  0  0  0  0  0  0  0  0999 V2000
   -1.0083    1.2553    0.9958 C   0  0  0  0  0  0  0  0  0  0  0  0
   -0.6707    0.5475   -0.2264 N   0  0  0  0  0  0  0  0  0  0  0  0
   -1.4982    0.7255   -1.3248 C   0  0  0  0  0  0  0  0  0  0  0  0
   -2.4936    1.4429   -1.3555 O   0  0  0  0  0  0  0  0  0  0  0  0
    0.3637   -0.3782   -0.2961 C   0  0  0  0  0  0  0  0  0  0  0  0
    1.2312   -0.7494    0.7080 C   0  0  0  0  0  0  0  0  0  0  0  0
    2.0412   -1.6740    0.1197 N   0  0  0  0  0  0  0  0  0  0  0  0
    1.6929   -1.8895   -1.1582 N   0  0  0  0  0  0  0  0  0  0  0  0
    0.6669   -1.0937   -1.4262 N   0  0  0  0  0  0  0  0  0  0  0  0
   -0.1030    1.4959    1.5742 H   0  0  0  0  0  0  0  0  0  0  0  0
   -1.6790    0.6194    1.5897 H   0  0  0  0  0  0  0  0  0  0  0  0
   -1.5224    2.1931    0.7668 H   0  0  0  0  0  0  0  0  0  0  0  0
   -1.1964    0.1507   -2.2153 H   0  0  0  0  0  0  0  0  0  0  0  0
    1.3547   -0.4546    1.7392 H   0  0  0  0  0  0  0  0  0  0  0  0
    2.8211   -2.1908    0.5094 H   0  0  0  0  0  0  0  0  0  0  0  0
  7 15  1  0
  7  8  1  0
  6  7  1  0
  6 14  1  0
  8  9  2  0
  5  6  2  0
  5  9  1  0
  2  5  1  0
  1 11  1  0
  1 10  1  0
  1  2  1  0
  2  3  1  0
  1 12  1  0
  3 13  1  0
  3  4  2  0
M  END
$$$$

     RDKit          3D

 20 20  0  0  0  0  0  0  0  0999 V2000
    0.7280   -1.4415    1.2371 C   0  0  0  0  0  0  0  0  0  0  0  0
    1.6056   -0.7047    0.3780 O   0  0  0  0  0  0  0  0  0  0  0  0
    1.0601    0.5892   -0.0562 C   0  0  0  0  0  0  0  0  0  0  0  0
    2.2091    1.2964   -0.7977 C   0  0  0  0  0  0  0  0  0  0  0  0
   -0.3073    0.4507   -0.4985 C   0  0  0  0  0  0  0  0  0  0  0  0
   -0.8323   -0.6767   -1.2791 C   0  0  0  0  0  0  0  0  0  0  0  0
   -2.1883   -0.8848   -0.6415 C   0  0  0  0  0  0  0  0  0  0  0  0
   -2.5029    0.2439    0.2150 C   0  0  0  0  0  0  0  0  0  0  0  0
   -1.4436    1.1158    0.0381 N   0  0  0  0  0  0  0  0  0  0  0  0
   -0.4006   -1.1699    1.0984 H   0  0  0  0  0  0  0  0  0  0  0  0
    0.4608   -2.4949    1.1175 H   0  0  0  0  0  0  0  0  0  0  0  0
    0.8200   -0.7408    2.0915 H   0  0  0  0  0  0  0  0  0  0  0  0
    0.9993    1.1592    0.9253 H   0  0  0  0  0  0  0  0  0  0  0  0
    1.9712    2.4034   -0.8800 H   0  0  0  0  0  0  0  0  0  0  0  0
    2.2342    0.7811   -1.9489 H   0  0  0  0  0  0  0  0  0  0  0  0
    3.1393    1.0629   -0.3742 H   0  0  0  0  0  0  0  0  0  0  0  0
   -0.1699   -1.6441   -1.3596 H   0  0  0  0  0  0  0  0  0  0  0  0
   -2.8111   -1.8858   -0.4788 H   0  0  0  0  0  0  0  0  0  0  0  0
   -3.1559    0.4472    1.0562 H   0  0  0  0  0  0  0  0  0  0  0  0
   -1.4155    2.0936    0.1573 H   0  0  0  0  0  0  0  0  0  0  0  0
  4 16  1  0
  4 14  1  0
  4 15  1  0
  3  4  1  0
  6 17  1  0
  1 11  1  0
  3 13  1  0
  3  5  1  0
  2  3  1  0
  5  6  2  0
  6  7  1  0
  1 12  1  0
  1  2  1  0
  1 10  1  0
  5  9  1  0
  7 18  1  0
  7  8  2  0
  8  9  1  0
  9 20  1  0
  8 19  1  0
M  END
$$$$

     RDKit          3D

 12 12  0  0  0  0  0  0  0  0999 V2000
    1.3239    1.4509   -0.0963 N   0  0  0  0  0  0  0  0  0  0  0  0
    0.1820    0.7682    0.2478 C   0  0  0  0  0  0  0  0  0  0  0  0
   -0.2963   -0.3974   -0.1298 C   0  0  0  0  0  0  0  0  0  0  0  0
   -1.4533   -0.7396    0.5355 O   0  0  0  0  0  0  0  0  0  0  0  0
   -1.6343    0.3671    1.3508 C   0  0  0  0  0  0  0  0  0  0  0  0
   -2.5620    0.4908    2.1441 O   0  0  0  0  0  0  0  0  0  0  0  0
   -0.6292    1.3299    1.2197 O   0  0  0  0  0  0  0  0  0  0  0  0
    0.2184   -1.2901   -1.0902 C   0  0  0  0  0  0  0  0  0  0  0  0
    0.5015   -2.1186   -1.9175 C   0  0  0  0  0  0  0  0  0  0  0  0
    1.5379    2.1953    0.5788 H   0  0  0  0  0  0  0  0  0  0  0  0
    2.1244    0.8209   -0.1894 H   0  0  0  0  0  0  0  0  0  0  0  0
    0.6869   -2.8773   -2.6534 H   0  0  0  0  0  0  0  0  0  0  0  0
  1  2  1  0
  1 10  1  0
  1 11  1  0
  2  3  2  0
  2  7  1  0
  3  4  1  0
  3  8  1  0
  4  5  1  0
  5  6  2  0
  5  7  1  0
  8  9  3  0
  9 12  1  0
M  END
$$$$

     RDKit          3D

 18 21  0  0  0  0  0  0  0  0999 V2000
   -1.8912    0.8528    0.3444 C   0  0  0  0  0  0  0  0  0  0  0  0
   -0.5871    0.2204    0.1656 C   0  0  0  0  0  0  0  0  0  0  0  0
    0.4037    0.4701   -0.9629 C   0  0  0  0  0  0  0  0  0  0  0  0
    1.2731    1.2299    0.0749 C   0  0  0  0  0  0  0  0  0  0  0  0
    0.5545    0.3509    1.1135 N   0  0  0  0  0  0  0  0  0  0  0  0
    0.9256   -1.0527    0.6293 C   0  0  0  0  0  0  0  0  0  0  0  0
    0.9679   -0.9953   -0.9200 C   0  0  0  0  0  0  0  0  0  0  0  0
   -0.1020   -1.9808   -0.9439 O   0  0  0  0  0  0  0  0  0  0  0  0
   -0.5457   -1.3222    0.2739 C   0  0  0  0  0  0  0  0  0  0  0  0
   -1.8186    1.9316    0.2387 H   0  0  0  0  0  0  0  0  0  0  0  0
   -2.3374    0.6149    1.3253 H   0  0  0  0  0  0  0  0  0  0  0  0
   -2.6027    0.3805   -0.3048 H   0  0  0  0  0  0  0  0  0  0  0  0
    0.1918    0.9375   -1.9409 H   0  0  0  0  0  0  0  0  0  0  0  0
    1.1543    2.2969    0.1008 H   0  0  0  0  0  0  0  0  0  0  0  0
    2.3733    1.0226    0.0154 H   0  0  0  0  0  0  0  0  0  0  0  0
    1.3788   -1.7413    1.3283 H   0  0  0  0  0  0  0  0  0  0  0  0
    1.8302   -1.2945   -1.4619 H   0  0  0  0  0  0  0  0  0  0  0  0
   -1.1686   -1.9211    0.9243 H   0  0  0  0  0  0  0  0  0  0  0  0
  3 13  1  0
  7 17  1  0
  3  7  1  0
  3  4  1  0
  2  3  1  0
  7  8  1  0
  6  7  1  0
  8  9  1  0
  1 11  1  0
  4 15  1  0
  4 14  1  0
  4  5  1  0
  1 10  1  0
  1  2  1  0
  2  9  1  0
  2  5  1  0
  1 12  1  0
  6  9  1  0
  9 18  1  0
  5  6  1  0
  6 16  1  0
M  END
$$$$

     RDKit          3D

 13 13  0  0  0  0  0  0  0  0999 V2000
   -0.4560   -2.0168    1.5450 N   0  0  0  0  0  0  0  0  0  0  0  0
   -1.3063   -1.5206    0.7146 C   0  0  0  0  0  0  0  0  0  0  0  0
   -1.1569   -0.4846   -0.1661 N   0  0  0  0  0  0  0  0  0  0  0  0
   -0.0888    0.3188   -0.3422 C   0  0  0  0  0  0  0  0  0  0  0  0
    0.1741    1.3736   -1.1904 C   0  0  0  0  0  0  0  0  0  0  0  0
    1.4305    1.8732   -0.9547 N   0  0  0  0  0  0  0  0  0  0  0  0
    1.8797    1.1098    0.0162 C   0  0  0  0  0  0  0  0  0  0  0  0
    1.0197    0.1442    0.4395 O   0  0  0  0  0  0  0  0  0  0  0  0
    0.4191   -1.4875    1.4535 H   0  0  0  0  0  0  0  0  0  0  0  0
   -2.3157   -1.9621    0.6626 H   0  0  0  0  0  0  0  0  0  0  0  0
   -1.9721   -0.3031   -0.7425 H   0  0  0  0  0  0  0  0  0  0  0  0
   -0.4664    1.7990   -1.9491 H   0  0  0  0  0  0  0  0  0  0  0  0
    2.8392    1.1560    0.5136 H   0  0  0  0  0  0  0  0  0  0  0  0
  5 12  1  0
  1  9  1  0
  1  2  2  3
  5  6  1  0
  4  5  2  0
  6  7  2  0
  2 10  1  0
  2  3  1  0
  3  4  1  0
  4  8  1  0
  7 13  1  0
  7  8  1  0
  3 11  1  0
M  END
$$$$

     RDKit          3D

 22 23  0  0  0  0  0  0  0  0999 V2000
    1.8463    0.6850   -0.9541 C   0  0  0  0  0  0  0  0  0  0  0  0
    0.5145    0.6629   -0.1883 C   0  0  0  0  0  0  0  0  0  0  0  0
    0.7400    0.4099    1.3194 C   0  0  0  0  0  0  0  0  0  0  0  0
   -0.5529    0.2729    2.1538 C   0  0  0  0  0  0  0  0  0  0  0  0
   -1.8265    0.0048    1.3773 C   0  0  0  0  0  0  0  0  0  0  0  0
   -1.7786   -0.2860    0.0637 C   0  0  0  0  0  0  0  0  0  0  0  0
   -0.4964   -0.3587   -0.6742 C   0  0  0  0  0  0  0  0  0  0  0  0
   -0.5849   -0.9258   -2.0897 C   0  0  0  0  0  0  0  0  0  0  0  0
   -0.0426   -1.7065   -1.0006 N   0  0  0  0  0  0  0  0  0  0  0  0
    2.4890    1.4807   -0.6059 H   0  0  0  0  0  0  0  0  0  0  0  0
    1.6498    0.8367   -2.0077 H   0  0  0  0  0  0  0  0  0  0  0  0
    2.4273   -0.2375   -0.8187 H   0  0  0  0  0  0  0  0  0  0  0  0
    0.0733    1.6751   -0.2965 H   0  0  0  0  0  0  0  0  0  0  0  0
    1.3039   -0.5305    1.4443 H   0  0  0  0  0  0  0  0  0  0  0  0
    1.3653    1.1644    1.7889 H   0  0  0  0  0  0  0  0  0  0  0  0
   -0.4644   -0.5764    2.8529 H   0  0  0  0  0  0  0  0  0  0  0  0
   -0.6704    1.1923    2.7897 H   0  0  0  0  0  0  0  0  0  0  0  0
   -2.7760    0.1398    1.8842 H   0  0  0  0  0  0  0  0  0  0  0  0
   -2.7009   -0.3150   -0.5497 H   0  0  0  0  0  0  0  0  0  0  0  0
    0.0960   -0.5789   -2.8326 H   0  0  0  0  0  0  0  0  0  0  0  0
   -1.5425   -1.2623   -2.4886 H   0  0  0  0  0  0  0  0  0  0  0  0
    0.9307   -1.7467   -1.1677 H   0  0  0  0  0  0  0  0  0  0  0  0
  3 15  1  0
  4 16  1  0
  4 17  1  0
  3  4  1  0
  4  5  1  0
  3 14  1  0
  2  3  1  0
  1 11  1  0
  2 13  1  0
  1  2  1  0
  2  7  1  0
  1 10  1  0
  1 12  1  0
  5 18  1  0
  5  6  2  0
  6  7  1  0
  6 19  1  0
  7  9  1  0
  7  8  1  0
  9 22  1  0
  8  9  1  0
  8 21  1  0
  8 20  1  0
M  END
$$$$

     RDKit          3D

 14 16  0  0  0  0  0  0  0  0999 V2000
   -1.7091    2.7428    0.5136 N   0  0  0  0  0  0  0  0  0  0  0  0
   -1.0961    1.7883    0.2725 C   0  0  0  0  0  0  0  0  0  0  0  0
   -0.3427    0.6328   -0.0127 C   0  0  0  0  0  0  0  0  0  0  0  0
   -0.1473    0.1218   -1.3855 C   0  0  0  0  0  0  0  0  0  0  0  0
   -0.8854   -1.0575   -0.9580 O   0  0  0  0  0  0  0  0  0  0  0  0
   -0.6414   -0.7310    0.4470 C   0  0  0  0  0  0  0  0  0  0  0  0
    0.7255   -1.2917    0.8812 C   0  0  0  0  0  0  0  0  0  0  0  0
    1.7320   -0.5161    0.1583 O   0  0  0  0  0  0  0  0  0  0  0  0
    1.0421    0.5718   -0.5386 C   0  0  0  0  0  0  0  0  0  0  0  0
   -0.4879    0.7114   -2.2258 H   0  0  0  0  0  0  0  0  0  0  0  0
   -1.5039   -0.9514    1.0774 H   0  0  0  0  0  0  0  0  0  0  0  0
    0.8402   -2.3498    0.6302 H   0  0  0  0  0  0  0  0  0  0  0  0
    0.8946   -1.1401    1.9514 H   0  0  0  0  0  0  0  0  0  0  0  0
    1.5794    1.4689   -0.8110 H   0  0  0  0  0  0  0  0  0  0  0  0
  7 13  1  0
  7  8  1  0
  8  9  1  0
  7 12  1  0
  6  7  1  0
  9 14  1  0
  3  9  1  0
  4  9  1  0
  3  6  1  0
  6 11  1  0
  5  6  1  0
  2  3  1  0
  3  4  1  0
  1  2  3  0
  4  5  1  0
  4 10  1  0
M  END
$$$$

     RDKit          3D

 20 19  0  0  0  0  0  0  0  0999 V2000
    0.6377   -0.3804   -1.4087 C   0  0  0  0  0  0  0  0  0  0  0  0
    0.3471   -0.3572    0.1060 C   0  0  0  0  0  0  0  0  0  0  0  0
    0.0232   -1.8030    0.5430 C   0  0  0  0  0  0  0  0  0  0  0  0
    1.6467    0.0822    0.8051 C   0  0  0  0  0  0  0  0  0  0  0  0
   -0.8640    0.5512    0.5107 C   0  0  0  0  0  0  0  0  0  0  0  0
   -0.4927    1.4814    1.5181 O   0  0  0  0  0  0  0  0  0  0  0  0
   -1.5079    1.2823   -0.5933 C   0  0  0  0  0  0  0  0  0  0  0  0
   -2.1133    1.8779   -1.4505 C   0  0  0  0  0  0  0  0  0  0  0  0
    1.0593    0.5790   -1.7375 H   0  0  0  0  0  0  0  0  0  0  0  0
   -0.2569   -0.5777   -2.0153 H   0  0  0  0  0  0  0  0  0  0  0  0
    1.3816   -1.1534   -1.6527 H   0  0  0  0  0  0  0  0  0  0  0  0
    0.8751   -2.4768    0.3999 H   0  0  0  0  0  0  0  0  0  0  0  0
   -0.2286   -1.8419    1.6150 H   0  0  0  0  0  0  0  0  0  0  0  0
   -0.8313   -2.2078   -0.0154 H   0  0  0  0  0  0  0  0  0  0  0  0
    2.4862   -0.5697    0.5484 H   0  0  0  0  0  0  0  0  0  0  0  0
    1.9216    1.0978    0.5280 H   0  0  0  0  0  0  0  0  0  0  0  0
    1.5411    0.0204    1.8961 H   0  0  0  0  0  0  0  0  0  0  0  0
   -1.6470   -0.0708    0.9610 H   0  0  0  0  0  0  0  0  0  0  0  0
   -1.2428    2.0905    1.6213 H   0  0  0  0  0  0  0  0  0  0  0  0
   -2.7350    2.3761   -2.1792 H   0  0  0  0  0  0  0  0  0  0  0  0
  5 18  1  0
  8 20  1  0
  7  8  3  0
  5  7  1  0
  5  6  1  0
  6 19  1  0
  2  5  1  0
  4 15  1  0
  1 10  1  0
  1  9  1  0
  1  2  1  0
  1 11  1  0
  2  4  1  0
  4 16  1  0
  4 17  1  0
  2  3  1  0
  3 14  1  0
  3 13  1  0
  3 12  1  0
M  END
$$$$

     RDKit          3D

 12 12  0  0  0  0  0  0  0  0999 V2000
    2.3543    0.6365    1.6371 F   0  0  0  0  0  0  0  0  0  0  0  0
    1.4312    0.0824    0.8383 C   0  0  0  0  0  0  0  0  0  0  0  0
    0.2940    0.7987    0.5750 C   0  0  0  0  0  0  0  0  0  0  0  0
   -0.5986    0.1622   -0.2493 C   0  0  0  0  0  0  0  0  0  0  0  0
   -1.8664    0.8463   -0.6019 C   0  0  0  0  0  0  0  0  0  0  0  0
   -2.7234    0.3605   -1.3287 O   0  0  0  0  0  0  0  0  0  0  0  0
   -0.3991   -1.0654   -0.7708 N   0  0  0  0  0  0  0  0  0  0  0  0
    0.7499   -1.6600   -0.4382 C   0  0  0  0  0  0  0  0  0  0  0  0
    1.6928   -1.1414    0.3533 N   0  0  0  0  0  0  0  0  0  0  0  0
    0.1391    1.7804    0.9946 H   0  0  0  0  0  0  0  0  0  0  0  0
   -2.0059    1.8484   -0.1632 H   0  0  0  0  0  0  0  0  0  0  0  0
    0.9320   -2.6487   -0.8463 H   0  0  0  0  0  0  0  0  0  0  0  0
  1  2  1  0
  2  3  2  0
  2  9  1  0
  3  4  1  0
  3 10  1  0
  4  5  1  0
  4  7  2  0
  5  6  2  0
  5 11  1  0
  7  8  1  0
  8  9  2  0
  8 12  1  0
M  END
$$$$

     RDKit          3D

 19 21  0  0  0  0  0  0  0  0999 V2000
    2.6039   -0.4792   -0.3416 C   0  0  0  0  0  0  0  0  0  0  0  0
    1.1112   -0.4835   -0.2517 C   0  0  0  0  0  0  0  0  0  0  0  0
    0.3441    0.8222   -0.2347 C   0  0  0  0  0  0  0  0  0  0  0  0
   -1.1623    0.9760   -0.5633 C   0  0  0  0  0  0  0  0  0  0  0  0
   -2.0674   -0.1603   -0.9551 C   0  0  0  0  0  0  0  0  0  0  0  0
   -1.9446    0.1743    0.5053 C   0  0  0  0  0  0  0  0  0  0  0  0
   -0.9348   -0.4847    1.3937 C   0  0  0  0  0  0  0  0  0  0  0  0
   -1.2064   -1.2326    2.3209 O   0  0  0  0  0  0  0  0  0  0  0  0
    0.4501   -0.0573    1.0319 C   0  0  0  0  0  0  0  0  0  0  0  0
    3.0544    0.3892    0.1514 H   0  0  0  0  0  0  0  0  0  0  0  0
    3.0025   -1.3883    0.1341 H   0  0  0  0  0  0  0  0  0  0  0  0
    2.9161   -0.4894   -1.3894 H   0  0  0  0  0  0  0  0  0  0  0  0
    0.6878   -1.3298   -0.7809 H   0  0  0  0  0  0  0  0  0  0  0  0
    0.9302    1.7371   -0.2577 H   0  0  0  0  0  0  0  0  0  0  0  0
   -1.5088    1.9803   -0.7914 H   0  0  0  0  0  0  0  0  0  0  0  0
   -3.0027    0.0693   -1.4543 H   0  0  0  0  0  0  0  0  0  0  0  0
   -1.5881   -1.0426   -1.3667 H   0  0  0  0  0  0  0  0  0  0  0  0
   -2.7468    0.6988    1.0005 H   0  0  0  0  0  0  0  0  0  0  0  0
    1.0617    0.3006    1.8489 H   0  0  0  0  0  0  0  0  0  0  0  0
  5 16  1  0
  4 15  1  0
  4  5  1  0
  5 17  1  0
  5  6  1  0
  4  6  1  0
  3  4  1  0
  6 18  1  0
  6  7  1  0
  3 14  1  0
  2  3  1  0
  3  9  1  0
  1 11  1  0
  7  9  1  0
  7  8  2  0
  1  2  1  0
  2  9  1  0
  2 13  1  0
  1 10  1  0
  1 12  1  0
  9 19  1  0
M  END
$$$$

     RDKit          3D

 20 20  0  0  0  0  0  0  0  0999 V2000
    0.6317    1.9864    0.5197 C   0  0  0  0  0  0  0  0  0  0  0  0
   -0.0778    0.8892   -0.3995 C   0  0  0  0  0  0  0  0  0  0  0  0
   -1.5077    0.6856    0.1619 C   0  0  0  0  0  0  0  0  0  0  0  0
   -1.5071    0.2109    1.5400 O   0  0  0  0  0  0  0  0  0  0  0  0
    0.8819   -0.3017   -0.4389 C   0  0  0  0  0  0  0  0  0  0  0  0
    0.8650   -1.5751   -1.2533 C   0  0  0  0  0  0  0  0  0  0  0  0
    0.6552   -1.6111    0.2773 C   0  0  0  0  0  0  0  0  0  0  0  0
   -0.6310   -2.1663    0.5589 O   0  0  0  0  0  0  0  0  0  0  0  0
    1.6715    2.1129    0.2174 H   0  0  0  0  0  0  0  0  0  0  0  0
    0.6675    1.6828    1.5661 H   0  0  0  0  0  0  0  0  0  0  0  0
    0.1504    2.9684    0.4733 H   0  0  0  0  0  0  0  0  0  0  0  0
   -0.1235    1.2962   -1.4057 H   0  0  0  0  0  0  0  0  0  0  0  0
   -1.9828    1.6619    0.1163 H   0  0  0  0  0  0  0  0  0  0  0  0
   -2.0534   -0.0006   -0.5162 H   0  0  0  0  0  0  0  0  0  0  0  0
   -1.4210   -0.7598    1.4908 H   0  0  0  0  0  0  0  0  0  0  0  0
    1.9175    0.0664   -0.4393 H   0  0  0  0  0  0  0  0  0  0  0  0
    0.0526   -1.6383   -1.9820 H   0  0  0  0  0  0  0  0  0  0  0  0
    1.8014   -2.0290   -1.5649 H   0  0  0  0  0  0  0  0  0  0  0  0
    1.3637   -1.6682    1.0510 H   0  0  0  0  0  0  0  0  0  0  0  0
   -1.3539   -1.8106    0.0270 H   0  0  0  0  0  0  0  0  0  0  0  0
  4 15  1  0
  3  4  1  0
  3 14  1  0
  3 13  1  0
  2  3  1  0
  1 10  1  0
  2 12  1  0
  1  2  1  0
  2  5  1  0
  1  9  1  0
  1 11  1  0
  8 20  1  0
  7  8  1  0
  5 16  1  0
  5  7  1  0
  5  6  1  0
  7 19  1  0
  6  7  1  0
  6 18  1  0
  6 17  1  0
M  END
$$$$

     RDKit          3D

 19 20  0  0  0  0  0  0  0  0999 V2000
   -0.6840   -1.1106    1.7949 C   0  0  0  0  0  0  0  0  0  0  0  0
   -0.5968    0.2697    1.1889 C   0  0  0  0  0  0  0  0  0  0  0  0
   -1.4045    0.4494   -0.0458 C   0  0  0  0  0  0  0  0  0  0  0  0
   -0.4812   -0.1674   -1.1381 C   0  0  0  0  0  0  0  0  0  0  0  0
    0.9620   -0.0411   -0.5586 C   0  0  0  0  0  0  0  0  0  0  0  0
    1.9180    0.3932   -1.6445 C   0  0  0  0  0  0  0  0  0  0  0  0
    2.1135    1.5621   -1.9603 O   0  0  0  0  0  0  0  0  0  0  0  0
    0.7828    0.9565    0.5317 C   0  0  0  0  0  0  0  0  0  0  0  0
    0.3829    0.9852    1.8531 O   0  0  0  0  0  0  0  0  0  0  0  0
   -1.7123   -1.3024    2.1151 H   0  0  0  0  0  0  0  0  0  0  0  0
   -0.4062   -1.9000    1.0847 H   0  0  0  0  0  0  0  0  0  0  0  0
   -0.0554   -1.2131    2.6895 H   0  0  0  0  0  0  0  0  0  0  0  0
   -2.3668   -0.0736   -0.0158 H   0  0  0  0  0  0  0  0  0  0  0  0
   -1.6100    1.5078   -0.2515 H   0  0  0  0  0  0  0  0  0  0  0  0
   -0.6121    0.3742   -2.0817 H   0  0  0  0  0  0  0  0  0  0  0  0
   -0.7353   -1.2244   -1.3031 H   0  0  0  0  0  0  0  0  0  0  0  0
    1.3358   -0.9895   -0.1612 H   0  0  0  0  0  0  0  0  0  0  0  0
    2.4215   -0.4264   -2.1860 H   0  0  0  0  0  0  0  0  0  0  0  0
    0.7479    1.9503    0.0886 H   0  0  0  0  0  0  0  0  0  0  0  0
  3 14  1  0
  1 11  1  0
  4 16  1  0
  3 13  1  0
  2  3  1  0
  3  4  1  0
  1  2  1  0
  1 10  1  0
  1 12  1  0
  2  9  1  0
  8  9  1  0
  2  8  1  0
  4 15  1  0
  4  5  1  0
  6 18  1  0
  5  8  1  0
  8 19  1  0
  5  6  1  0
  5 17  1  0
  6  7  2  0
M  END
$$$$

     RDKit          3D

 20 19  0  0  0  0  0  0  0  0999 V2000
    0.9235    1.4111   -0.7496 C   0  0  0  0  0  0  0  0  0  0  0  0
    0.1765    0.1830   -0.1669 C   0  0  0  0  0  0  0  0  0  0  0  0
   -0.1242    0.4932    1.3093 C   0  0  0  0  0  0  0  0  0  0  0  0
   -0.8401   -0.5734    1.9322 O   0  0  0  0  0  0  0  0  0  0  0  0
   -1.1187   -0.0802   -0.9786 C   0  0  0  0  0  0  0  0  0  0  0  0
   -1.8905    1.0951   -1.2346 O   0  0  0  0  0  0  0  0  0  0  0  0
    1.1393   -1.0363   -0.2326 C   0  0  0  0  0  0  0  0  0  0  0  0
    0.6097   -2.2687    0.0174 N   0  0  0  0  0  0  0  0  0  0  0  0
    2.3338   -0.9283   -0.4768 O   0  0  0  0  0  0  0  0  0  0  0  0
    1.1299    1.2612   -1.8042 H   0  0  0  0  0  0  0  0  0  0  0  0
    1.8870    1.5796   -0.2393 H   0  0  0  0  0  0  0  0  0  0  0  0
    0.3267    2.3256   -0.6587 H   0  0  0  0  0  0  0  0  0  0  0  0
    0.8158    0.6595    1.8565 H   0  0  0  0  0  0  0  0  0  0  0  0
   -0.7588    1.3780    1.3844 H   0  0  0  0  0  0  0  0  0  0  0  0
   -0.9031   -0.3582    2.8801 H   0  0  0  0  0  0  0  0  0  0  0  0
   -1.7821   -0.7827   -0.4654 H   0  0  0  0  0  0  0  0  0  0  0  0
   -0.8912   -0.5280   -1.9598 H   0  0  0  0  0  0  0  0  0  0  0  0
   -1.8789    1.6589   -0.4314 H   0  0  0  0  0  0  0  0  0  0  0  0
    1.2324   -3.0677   -0.0568 H   0  0  0  0  0  0  0  0  0  0  0  0
   -0.3871   -2.4218    0.0751 H   0  0  0  0  0  0  0  0  0  0  0  0
  7  9  2  0
  8 20  1  0
  7  8  1  0
  2  7  1  0
  8 19  1  0
  1 11  1  0
  5 16  1  0
  5 17  1  0
  1  2  1  0
  1 10  1  0
  1 12  1  0
  2  5  1  0
  2  3  1  0
  5  6  1  0
  3 13  1  0
  3  4  1  0
  3 14  1  0
  6 18  1  0
  4 15  1  0
M  END
$$$$

     RDKit          3D

 19 20  0  0  0  0  0  0  0  0999 V2000
   -1.6110    2.0550    1.3373 C   0  0  0  0  0  0  0  0  0  0  0  0
   -0.5339    1.5445    0.3278 O   0  0  0  0  0  0  0  0  0  0  0  0
   -0.6906    0.2764   -0.3243 C   0  0  0  0  0  0  0  0  0  0  0  0
    0.4947    0.3472   -1.3482 C   0  0  0  0  0  0  0  0  0  0  0  0
    1.1101   -1.0762   -1.6228 C   0  0  0  0  0  0  0  0  0  0  0  0
    0.4419   -1.8390   -0.3806 N   0  0  0  0  0  0  0  0  0  0  0  0
    1.3152   -1.4483    0.7376 C   0  0  0  0  0  0  0  0  0  0  0  0
   -0.2133   -0.9285    0.4078 C   0  0  0  0  0  0  0  0  0  0  0  0
   -1.0053    2.6357    2.0413 H   0  0  0  0  0  0  0  0  0  0  0  0
   -2.1882    1.2958    1.8432 H   0  0  0  0  0  0  0  0  0  0  0  0
   -2.2357    2.7881    0.7844 H   0  0  0  0  0  0  0  0  0  0  0  0
   -1.7228    0.2004   -0.8518 H   0  0  0  0  0  0  0  0  0  0  0  0
    0.4600    1.0184   -2.2623 H   0  0  0  0  0  0  0  0  0  0  0  0
    1.2116    0.9740   -0.8378 H   0  0  0  0  0  0  0  0  0  0  0  0
    0.7169   -1.7168   -2.4578 H   0  0  0  0  0  0  0  0  0  0  0  0
    2.1785   -1.1307   -1.6093 H   0  0  0  0  0  0  0  0  0  0  0  0
    1.7263   -2.5354    0.9558 H   0  0  0  0  0  0  0  0  0  0  0  0
    1.3611   -1.3910    1.8553 H   0  0  0  0  0  0  0  0  0  0  0  0
   -0.8157   -1.0697    1.4044 H   0  0  0  0  0  0  0  0  0  0  0  0
  5 15  1  0
  8 19  1  0
  3 12  1  0
  5  6  1  0
  6  8  1  0
  6  7  1  0
  5 16  1  0
  4  5  1  0
  3  8  1  0
  7  8  1  0
  4 13  1  0
  3  4  1  0
  2  3  1  0
  4 14  1  0
  1 10  1  0
  7 17  1  0
  7 18  1  0
  1  2  1  0
  1  9  1  0
  1 11  1  0
M  END
$$$$

     RDKit          3D

 20 20  0  0  0  0  0  0  0  0999 V2000
   -2.2296    1.2233    0.1382 C   0  0  0  0  0  0  0  0  0  0  0  0
   -0.8482    1.6153   -0.4122 C   0  0  0  0  0  0  0  0  0  0  0  0
    0.1615    0.4505   -0.4438 C   0  0  0  0  0  0  0  0  0  0  0  0
    1.1475    0.4689    0.7380 C   0  0  0  0  0  0  0  0  0  0  0  0
    2.1779   -0.5181    0.5818 O   0  0  0  0  0  0  0  0  0  0  0  0
    1.7544   -1.6593   -0.1727 C   0  0  0  0  0  0  0  0  0  0  0  0
    0.2620   -1.9170   -0.0238 C   0  0  0  0  0  0  0  0  0  0  0  0
   -0.5256   -0.8252   -0.5381 O   0  0  0  0  0  0  0  0  0  0  0  0
   -2.8707    2.1104    0.2164 H   0  0  0  0  0  0  0  0  0  0  0  0
   -2.1894    0.7559    1.1252 H   0  0  0  0  0  0  0  0  0  0  0  0
   -2.7162    0.5137   -0.5424 H   0  0  0  0  0  0  0  0  0  0  0  0
   -0.4397    2.4461    0.1935 H   0  0  0  0  0  0  0  0  0  0  0  0
   -0.9950    1.9870   -1.4370 H   0  0  0  0  0  0  0  0  0  0  0  0
    0.7588    0.5505   -1.3604 H   0  0  0  0  0  0  0  0  0  0  0  0
    1.6363    1.4457    0.8380 H   0  0  0  0  0  0  0  0  0  0  0  0
    0.6201    0.2417    1.6828 H   0  0  0  0  0  0  0  0  0  0  0  0
    2.0100   -1.4777   -1.2149 H   0  0  0  0  0  0  0  0  0  0  0  0
    2.3281   -2.5282    0.1739 H   0  0  0  0  0  0  0  0  0  0  0  0
   -0.0045   -2.0781    1.0419 H   0  0  0  0  0  0  0  0  0  0  0  0
   -0.0378   -2.8053   -0.5845 H   0  0  0  0  0  0  0  0  0  0  0  0
  6 17  1  0
  7 20  1  0
  7 19  1  0
  6  7  1  0
  7  8  1  0
  6 18  1  0
  5  6  1  0
  4  5  1  0
  3  8  1  0
  3 14  1  0
  3  4  1  0
  2  3  1  0
  4 16  1  0
  4 15  1  0
  1 10  1  0
  1  2  1  0
  2 13  1  0
  2 12  1  0
  1  9  1  0
  1 11  1  0
M  END
$$$$

     RDKit          3D

 19 20  0  0  0  0  0  0  0  0999 V2000
    1.6658   -2.2553   -0.0029 C   0  0  0  0  0  0  0  0  0  0  0  0
    0.5272   -1.5122    0.5518 N   0  0  0  0  0  0  0  0  0  0  0  0
    0.9604   -0.1600    0.4592 C   0  0  0  0  0  0  0  0  0  0  0  0
    0.5140    0.7254   -0.8423 C   0  0  0  0  0  0  0  0  0  0  0  0
    0.0330   -0.0058   -2.0133 O   0  0  0  0  0  0  0  0  0  0  0  0
   -0.3061    1.5671    0.0949 C   0  0  0  0  0  0  0  0  0  0  0  0
   -1.7550    1.2072    0.1906 C   0  0  0  0  0  0  0  0  0  0  0  0
   -1.2570    0.3389    1.4556 C   0  0  0  0  0  0  0  0  0  0  0  0
    0.1014    0.8582    1.2311 N   0  0  0  0  0  0  0  0  0  0  0  0
    2.5391   -2.1169    0.5587 H   0  0  0  0  0  0  0  0  0  0  0  0
    1.3212   -3.2469   -0.0957 H   0  0  0  0  0  0  0  0  0  0  0  0
    1.8346   -1.9339   -1.0644 H   0  0  0  0  0  0  0  0  0  0  0  0
    1.4786    1.1178   -1.1337 H   0  0  0  0  0  0  0  0  0  0  0  0
    0.0947    0.4642   -2.8336 H   0  0  0  0  0  0  0  0  0  0  0  0
   -0.2631    2.5500   -0.0071 H   0  0  0  0  0  0  0  0  0  0  0  0
   -2.4154    2.0097    0.3021 H   0  0  0  0  0  0  0  0  0  0  0  0
   -2.1622    0.5742   -0.6682 H   0  0  0  0  0  0  0  0  0  0  0  0
   -1.4925    0.5562    2.5007 H   0  0  0  0  0  0  0  0  0  0  0  0
   -1.4186   -0.7380    1.3166 H   0  0  0  0  0  0  0  0  0  0  0  0
  6 15  1  0
  4 13  1  0
  4  6  1  0
  4  5  1  0
  3  4  1  0
  6  9  1  0
  6  7  1  0
  5 14  1  0
  7 16  1  0
  3  9  1  0
  8  9  1  0
  7 17  1  0
  7  8  1  0
  2  3  1  0
  1 11  1  0
  8 18  1  0
  8 19  1  0
  1  2  1  0
  1 12  1  0
  1 10  1  0
M  END
$$$$

     RDKit          3D

 17 18  0  0  0  0  0  0  0  0999 V2000
   -2.7463   -1.1966    1.1086 O   0  0  0  0  0  0  0  0  0  0  0  0
   -1.6248   -0.9933    0.6684 C   0  0  0  0  0  0  0  0  0  0  0  0
   -1.2979   -0.7644   -0.7763 C   0  0  0  0  0  0  0  0  0  0  0  0
    0.1303   -0.2818   -0.7399 C   0  0  0  0  0  0  0  0  0  0  0  0
    0.2918    1.2484   -0.7116 C   0  0  0  0  0  0  0  0  0  0  0  0
    1.2633    1.4655    0.4034 C   0  0  0  0  0  0  0  0  0  0  0  0
    1.4377    0.3552    1.1279 C   0  0  0  0  0  0  0  0  0  0  0  0
    0.6362   -0.7842    0.6011 C   0  0  0  0  0  0  0  0  0  0  0  0
   -0.4966   -0.9949    1.4303 O   0  0  0  0  0  0  0  0  0  0  0  0
   -1.3781   -1.7228   -1.2969 H   0  0  0  0  0  0  0  0  0  0  0  0
   -1.9770   -0.0344   -1.2228 H   0  0  0  0  0  0  0  0  0  0  0  0
    0.7155   -0.6858   -1.5758 H   0  0  0  0  0  0  0  0  0  0  0  0
    0.6980    1.6083   -1.6631 H   0  0  0  0  0  0  0  0  0  0  0  0
   -0.6466    1.7788   -0.5102 H   0  0  0  0  0  0  0  0  0  0  0  0
    1.7185    2.4204    0.6253 H   0  0  0  0  0  0  0  0  0  0  0  0
    2.0541    0.2871    2.0126 H   0  0  0  0  0  0  0  0  0  0  0  0
    1.2219   -1.7057    0.5188 H   0  0  0  0  0  0  0  0  0  0  0  0
  8 17  1  0
  1  2  2  0
  2  9  1  0
  8  9  1  0
  2  3  1  0
  4 12  1  0
  3 10  1  0
  4  8  1  0
  7  8  1  0
  3  4  1  0
  3 11  1  0
  4  5  1  0
  7 16  1  0
  6  7  2  0
  5 13  1  0
  5  6  1  0
  5 14  1  0
  6 15  1  0
M  END
$$$$

     RDKit          3D

 21 22  0  0  0  0  0  0  0  0999 V2000
   -0.9927    1.1039   -2.3889 C   0  0  0  0  0  0  0  0  0  0  0  0
    0.0489    0.6239   -1.3506 C   0  0  0  0  0  0  0  0  0  0  0  0
    0.7439    1.7719   -0.6257 C   0  0  0  0  0  0  0  0  0  0  0  0
    0.6875    1.6728    0.6884 C   0  0  0  0  0  0  0  0  0  0  0  0
   -0.0004    0.4425    1.1269 C   0  0  0  0  0  0  0  0  0  0  0  0
    0.4424   -0.9674    0.6631 C   0  0  0  0  0  0  0  0  0  0  0  0
   -0.0747   -2.2105    1.3274 C   0  0  0  0  0  0  0  0  0  0  0  0
    0.7410   -2.5334    2.4386 O   0  0  0  0  0  0  0  0  0  0  0  0
   -0.5370   -0.1869   -0.1672 C   0  0  0  0  0  0  0  0  0  0  0  0
   -1.9511    1.4398   -1.9046 H   0  0  0  0  0  0  0  0  0  0  0  0
   -0.5661    1.9240   -2.9508 H   0  0  0  0  0  0  0  0  0  0  0  0
   -1.2292    0.2466   -3.0505 H   0  0  0  0  0  0  0  0  0  0  0  0
    0.8030    0.0390   -1.8698 H   0  0  0  0  0  0  0  0  0  0  0  0
    1.3228    2.4971   -1.1535 H   0  0  0  0  0  0  0  0  0  0  0  0
    1.1322    2.4099    1.3649 H   0  0  0  0  0  0  0  0  0  0  0  0
    0.1178    0.2513    2.2224 H   0  0  0  0  0  0  0  0  0  0  0  0
    1.4473   -1.0649    0.3832 H   0  0  0  0  0  0  0  0  0  0  0  0
    0.0026   -3.0805    0.6735 H   0  0  0  0  0  0  0  0  0  0  0  0
   -1.1255   -2.0901    1.6861 H   0  0  0  0  0  0  0  0  0  0  0  0
    0.5630   -1.8335    3.0873 H   0  0  0  0  0  0  0  0  0  0  0  0
   -1.5758   -0.4557   -0.2002 H   0  0  0  0  0  0  0  0  0  0  0  0
  3 14  1  0
  1 11  1  0
  3  4  2  0
  2  3  1  0
  4 15  1  0
  1 10  1  0
  1  2  1  0
  1 12  1  0
  4  5  1  0
  2 13  1  0
  2  9  1  0
  7 18  1  0
  7 19  1  0
  7  8  1  0
  6  7  1  0
  5  9  1  0
  5  6  1  0
  5 16  1  0
  8 20  1  0
  6  9  1  0
  9 21  1  0
  6 17  1  0
M  END
$$$$

     RDKit          3D

 19 20  0  0  0  0  0  0  0  0999 V2000
    2.0966    1.9028    1.8675 O   0  0  0  0  0  0  0  0  0  0  0  0
    1.3588    2.3716    1.0089 C   0  0  0  0  0  0  0  0  0  0  0  0
    0.1702    1.8450    0.5842 N   0  0  0  0  0  0  0  0  0  0  0  0
   -0.3874    0.6400    1.1720 C   0  0  0  0  0  0  0  0  0  0  0  0
   -0.9269   -0.2623    0.0662 C   0  0  0  0  0  0  0  0  0  0  0  0
   -0.3991   -1.7109   -0.1054 C   0  0  0  0  0  0  0  0  0  0  0  0
   -0.9532   -1.5965   -1.5439 C   0  0  0  0  0  0  0  0  0  0  0  0
   -0.2188   -0.1393   -1.4013 N   0  0  0  0  0  0  0  0  0  0  0  0
    0.8766   -1.0817   -0.7029 C   0  0  0  0  0  0  0  0  0  0  0  0
    1.6068    3.3086    0.4704 H   0  0  0  0  0  0  0  0  0  0  0  0
   -0.3467    2.3285   -0.1490 H   0  0  0  0  0  0  0  0  0  0  0  0
    0.3499    0.1306    1.8123 H   0  0  0  0  0  0  0  0  0  0  0  0
   -1.2128    0.9546    1.8240 H   0  0  0  0  0  0  0  0  0  0  0  0
   -2.0246   -0.1289   -0.0053 H   0  0  0  0  0  0  0  0  0  0  0  0
   -0.4813   -2.5478    0.5722 H   0  0  0  0  0  0  0  0  0  0  0  0
   -2.0342   -1.5451   -1.6781 H   0  0  0  0  0  0  0  0  0  0  0  0
   -0.5140   -2.2350   -2.3210 H   0  0  0  0  0  0  0  0  0  0  0  0
    1.5816   -0.5500   -0.0551 H   0  0  0  0  0  0  0  0  0  0  0  0
    1.4584   -1.6843   -1.4158 H   0  0  0  0  0  0  0  0  0  0  0  0
  7 16  1  0
  7 17  1  0
  7  8  1  0
  6  7  1  0
  3 11  1  0
  8  9  1  0
  5  8  1  0
  9 19  1  0
  4 13  1  0
  2 10  1  0
  2  3  1  0
  3  4  1  0
  6  9  1  0
  9 18  1  0
  1  2  2  0
  4  5  1  0
  4 12  1  0
  5  6  1  0
  6 15  1  0
  5 14  1  0
M  END
$$$$

     RDKit          3D

 16 16  0  0  0  0  0  0  0  0999 V2000
   -1.5391   -1.2228    1.6052 O   0  0  0  0  0  0  0  0  0  0  0  0
   -0.1729   -0.8532    1.4131 C   0  0  0  0  0  0  0  0  0  0  0  0
   -0.0987    0.5208    0.7619 C   0  0  0  0  0  0  0  0  0  0  0  0
    1.3000    0.9523    0.5503 N   0  0  0  0  0  0  0  0  0  0  0  0
    1.0543    1.4222   -0.7062 C   0  0  0  0  0  0  0  0  0  0  0  0
    1.7031    2.1845   -1.3799 O   0  0  0  0  0  0  0  0  0  0  0  0
   -0.3051    0.6781   -0.7777 C   0  0  0  0  0  0  0  0  0  0  0  0
   -0.2750   -0.5066   -1.6170 C   0  0  0  0  0  0  0  0  0  0  0  0
   -0.2244   -1.4745   -2.3254 C   0  0  0  0  0  0  0  0  0  0  0  0
   -2.0139   -1.0848    0.7593 H   0  0  0  0  0  0  0  0  0  0  0  0
    0.2998   -0.8356    2.4008 H   0  0  0  0  0  0  0  0  0  0  0  0
    0.3151   -1.6315    0.8183 H   0  0  0  0  0  0  0  0  0  0  0  0
   -0.6331    1.2730    1.3508 H   0  0  0  0  0  0  0  0  0  0  0  0
    1.8694    1.5459    1.1410 H   0  0  0  0  0  0  0  0  0  0  0  0
   -1.1369    1.3478   -1.0238 H   0  0  0  0  0  0  0  0  0  0  0  0
   -0.1428   -2.3157   -2.9708 H   0  0  0  0  0  0  0  0  0  0  0  0
  5  6  2  0
  4 14  1  0
  4  5  1  0
  5  7  1  0
  3  4  1  0
  2 11  1  0
  1 10  1  0
  1  2  1  0
  2  3  1  0
  2 12  1  0
  3  7  1  0
  3 13  1  0
  7  8  1  0
  7 15  1  0
  8  9  3  0
  9 16  1  0
M  END
$$$$

     RDKit          3D

 19 22  0  0  0  0  0  0  0  0999 V2000
    1.3075    0.3553   -1.0306 C   0  0  0  0  0  0  0  0  0  0  0  0
   -0.1337    0.7954   -1.2513 C   0  0  0  0  0  0  0  0  0  0  0  0
   -1.3134   -0.0067   -0.7142 C   0  0  0  0  0  0  0  0  0  0  0  0
   -1.1030   -1.2968    0.0532 C   0  0  0  0  0  0  0  0  0  0  0  0
   -0.1180   -0.9865    1.2103 C   0  0  0  0  0  0  0  0  0  0  0  0
    1.2557   -1.2767    0.8447 O   0  0  0  0  0  0  0  0  0  0  0  0
    1.4877    0.1108    0.4892 C   0  0  0  0  0  0  0  0  0  0  0  0
    0.1498    0.5455    1.1543 C   0  0  0  0  0  0  0  0  0  0  0  0
   -0.7330    1.1150    0.0825 C   0  0  0  0  0  0  0  0  0  0  0  0
    1.5360   -0.5455   -1.6154 H   0  0  0  0  0  0  0  0  0  0  0  0
    1.9792    1.1595   -1.3551 H   0  0  0  0  0  0  0  0  0  0  0  0
   -0.2788    1.4603   -2.0843 H   0  0  0  0  0  0  0  0  0  0  0  0
   -2.2831    0.1060   -1.1700 H   0  0  0  0  0  0  0  0  0  0  0  0
   -2.0580   -1.6464    0.4676 H   0  0  0  0  0  0  0  0  0  0  0  0
   -0.7103   -2.0770   -0.6079 H   0  0  0  0  0  0  0  0  0  0  0  0
   -0.3835   -1.4078    2.1846 H   0  0  0  0  0  0  0  0  0  0  0  0
    2.4067    0.4982    0.9341 H   0  0  0  0  0  0  0  0  0  0  0  0
    0.2372    1.0609    2.1139 H   0  0  0  0  0  0  0  0  0  0  0  0
   -1.2451    2.0364    0.2945 H   0  0  0  0  0  0  0  0  0  0  0  0
  1 11  1  0
  7 17  1  0
  9 19  1  0
  2 12  1  0
  1  7  1  0
  1  2  1  0
  1 10  1  0
  8 18  1  0
  7  8  1  0
  6  7  1  0
  2  9  1  0
  2  3  1  0
  8  9  1  0
  3  9  1  0
  5  8  1  0
  3 13  1  0
  3  4  1  0
  5  6  1  0
  5 16  1  0
  4  5  1  0
  4 15  1  0
  4 14  1  0
M  END
$$$$

     RDKit          3D

 16 16  0  0  0  0  0  0  0  0999 V2000
   -0.8737    1.5839    1.2841 N   0  0  0  0  0  0  0  0  0  0  0  0
    0.3985    1.3784   -2.6187 H   0  0  0  0  0  0  0  0  0  0  0  0
   -0.0829    2.0747    1.7175 H   0  0  0  0  0  0  0  0  0  0  0  0
   -1.7328    2.0390    1.1057 H   0  0  0  0  0  0  0  0  0  0  0  0
   -0.9091    0.1070    1.4023 C   0  0  0  0  0  0  0  0  0  0  0  0
   -0.7069   -0.4850    0.0075 C   0  0  0  0  0  0  0  0  0  0  0  0
    0.3144   -1.6791   -0.2185 N   0  0  0  0  0  0  0  0  0  0  0  0
    0.7460   -0.3534   -0.5353 C   0  0  0  0  0  0  0  0  0  0  0  0
    1.2033   -0.3913   -1.9320 C   0  0  0  0  0  0  0  0  0  0  0  0
    1.6651   -1.3756   -2.4444 O   0  0  0  0  0  0  0  0  0  0  0  0
    1.1893    0.7641   -2.6494 O   0  0  0  0  0  0  0  0  0  0  0  0
   -1.8458   -0.2265    1.9471 H   0  0  0  0  0  0  0  0  0  0  0  0
   -0.0213   -0.1744    2.0960 H   0  0  0  0  0  0  0  0  0  0  0  0
   -1.6112   -1.1010   -0.1097 H   0  0  0  0  0  0  0  0  0  0  0  0
    0.8530   -2.0419    0.6037 H   0  0  0  0  0  0  0  0  0  0  0  0
    1.4142   -0.1189    0.3441 H   0  0  0  0  0  0  0  0  0  0  0  0
  1  4  1  0
  7 15  1  0
  1  3  1  0
  5 13  1  0
  1  5  1  0
  6  7  1  0
  7  8  1  0
  5  6  1  0
  5 12  1  0
  6 14  1  0
  6  8  1  0
  2 11  1  0
  8 16  1  0
  8  9  1  0
  9 11  1  0
  9 10  2  0
M  END
$$$$

     RDKit          3D

 18 20  0  0  0  0  0  0  0  0999 V2000
    1.3189   -0.5706   -1.1027 C   0  0  0  0  0  0  0  0  0  0  0  0
   -0.0949   -1.1593   -1.4038 C   0  0  0  0  0  0  0  0  0  0  0  0
   -0.6242   -0.3256   -0.2713 C   0  0  0  0  0  0  0  0  0  0  0  0
   -0.4720    1.2220   -0.3821 C   0  0  0  0  0  0  0  0  0  0  0  0
    0.1799    0.9342    0.9864 C   0  0  0  0  0  0  0  0  0  0  0  0
   -0.9808    0.2833    1.8007 C   0  0  0  0  0  0  0  0  0  0  0  0
   -1.4904   -0.6527    0.8242 O   0  0  0  0  0  0  0  0  0  0  0  0
    0.8503   -0.3198    0.3429 C   0  0  0  0  0  0  0  0  0  0  0  0
    1.6168    0.3040   -1.6903 H   0  0  0  0  0  0  0  0  0  0  0  0
    2.1227   -1.3042   -1.1925 H   0  0  0  0  0  0  0  0  0  0  0  0
   -0.5042   -0.9109   -2.3881 H   0  0  0  0  0  0  0  0  0  0  0  0
   -0.1868   -2.2406   -1.2413 H   0  0  0  0  0  0  0  0  0  0  0  0
   -1.4218    1.7778   -0.3829 H   0  0  0  0  0  0  0  0  0  0  0  0
    0.1709    1.6842   -1.1322 H   0  0  0  0  0  0  0  0  0  0  0  0
    0.8070    1.6858    1.4589 H   0  0  0  0  0  0  0  0  0  0  0  0
   -1.7614    1.0039    2.0749 H   0  0  0  0  0  0  0  0  0  0  0  0
   -0.6098   -0.2649    2.6673 H   0  0  0  0  0  0  0  0  0  0  0  0
    1.0797   -1.1463    1.0320 H   0  0  0  0  0  0  0  0  0  0  0  0
  1 10  1  0
  8 18  1  0
  2 11  1  0
  1  8  1  0
  1  2  1  0
  1  9  1  0
  3  8  1  0
  5  8  1  0
  2 12  1  0
  2  3  1  0
  4 13  1  0
  3  4  1  0
  3  7  1  0
  5 15  1  0
  4  5  1  0
  5  6  1  0
  4 14  1  0
  6  7  1  0
  6 16  1  0
  6 17  1  0
M  END
$$$$

     RDKit          3D

 14 14  0  0  0  0  0  0  0  0999 V2000
    1.8697    1.9844   -1.5593 N   0  0  0  0  0  0  0  0  0  0  0  0
    1.9620    0.5906   -1.1531 C   0  0  0  0  0  0  0  0  0  0  0  0
    0.7377   -0.0985   -1.3812 O   0  0  0  0  0  0  0  0  0  0  0  0
    0.0071   -0.2777   -0.2821 C   0  0  0  0  0  0  0  0  0  0  0  0
    0.1779    0.0270    1.0549 C   0  0  0  0  0  0  0  0  0  0  0  0
   -0.9845   -0.3983    1.7475 C   0  0  0  0  0  0  0  0  0  0  0  0
   -1.8254   -0.9664    0.8219 C   0  0  0  0  0  0  0  0  0  0  0  0
   -1.2140   -0.8927   -0.4023 N   0  0  0  0  0  0  0  0  0  0  0  0
    1.0444    2.3783   -1.0894 H   0  0  0  0  0  0  0  0  0  0  0  0
    2.7578    0.0874   -1.7122 H   0  0  0  0  0  0  0  0  0  0  0  0
    1.0403    0.5102    1.4982 H   0  0  0  0  0  0  0  0  0  0  0  0
   -1.1812   -0.3012    2.8079 H   0  0  0  0  0  0  0  0  0  0  0  0
   -2.8046   -1.4095    0.9230 H   0  0  0  0  0  0  0  0  0  0  0  0
   -1.5872   -1.2335   -1.2738 H   0  0  0  0  0  0  0  0  0  0  0  0
  2 10  1  0
  6 12  1  0
  1  9  1  0
  5 11  1  0
  5  6  1  0
  6  7  2  0
  4  5  2  0
  1  2  1  0
  2  3  1  0
  7 13  1  0
  7  8  1  0
  4  8  1  0
  3  4  1  0
  8 14  1  0
M  END
$$$$

     RDKit          3D

 14 15  0  0  0  0  0  0  0  0999 V2000
    0.4204   -1.8979   -1.4050 N   0  0  0  0  0  0  0  0  0  0  0  0
   -0.2647   -0.6655   -1.0766 C   0  0  0  0  0  0  0  0  0  0  0  0
   -1.2424   -0.9130   -0.0118 N   0  0  0  0  0  0  0  0  0  0  0  0
   -0.7683    0.3004    0.7179 C   0  0  0  0  0  0  0  0  0  0  0  0
   -1.6096    1.4622    0.4689 C   0  0  0  0  0  0  0  0  0  0  0  0
   -2.3171    2.3565    0.2478 N   0  0  0  0  0  0  0  0  0  0  0  0
    0.4506    0.1701   -0.0966 C   0  0  0  0  0  0  0  0  0  0  0  0
    1.8789    0.4563    0.1593 C   0  0  0  0  0  0  0  0  0  0  0  0
    1.0592    1.3682   -0.6010 O   0  0  0  0  0  0  0  0  0  0  0  0
    0.3988   -2.5562   -0.6293 H   0  0  0  0  0  0  0  0  0  0  0  0
   -2.2086   -0.8478   -0.3389 H   0  0  0  0  0  0  0  0  0  0  0  0
   -0.6192    0.1130    1.7889 H   0  0  0  0  0  0  0  0  0  0  0  0
    2.6269   -0.1118   -0.3771 H   0  0  0  0  0  0  0  0  0  0  0  0
    2.1950    0.7654    1.1533 H   0  0  0  0  0  0  0  0  0  0  0  0
  1 10  1  0
  1  2  1  0
  7  9  1  0
  8  9  1  0
  2  7  1  0
  2  3  1  0
  4 12  1  0
  7  8  1  0
  4  7  1  0
  3 11  1  0
  8 14  1  0
  3  4  1  0
  8 13  1  0
  4  5  1  0
  5  6  3  0
M  END
$$$$

     RDKit          3D

 16 15  0  0  0  0  0  0  0  0999 V2000
   -1.3307   -1.0222    2.9621 O   0  0  0  0  0  0  0  0  0  0  0  0
   -0.2465   -1.5971    2.2431 C   0  0  0  0  0  0  0  0  0  0  0  0
    0.2634   -0.6080    1.2885 C   0  0  0  0  0  0  0  0  0  0  0  0
    0.5204    0.1817    0.4263 C   0  0  0  0  0  0  0  0  0  0  0  0
    0.6234    1.1264   -0.7125 C   0  0  0  0  0  0  0  0  0  0  0  0
   -0.5161    0.8144   -1.7108 C   0  0  0  0  0  0  0  0  0  0  0  0
   -0.2983   -0.4103   -2.4081 O   0  0  0  0  0  0  0  0  0  0  0  0
    1.9354    1.1429   -1.4008 C   0  0  0  0  0  0  0  0  0  0  0  0
    2.9536    1.1919   -1.9557 N   0  0  0  0  0  0  0  0  0  0  0  0
   -1.0067   -0.1868    3.3356 H   0  0  0  0  0  0  0  0  0  0  0  0
   -0.6305   -2.4697    1.6989 H   0  0  0  0  0  0  0  0  0  0  0  0
    0.5174   -1.9441    2.9553 H   0  0  0  0  0  0  0  0  0  0  0  0
    0.4384    2.1302   -0.3068 H   0  0  0  0  0  0  0  0  0  0  0  0
   -1.4642    0.7236   -1.1680 H   0  0  0  0  0  0  0  0  0  0  0  0
   -0.6014    1.6117   -2.4669 H   0  0  0  0  0  0  0  0  0  0  0  0
   -1.1575   -0.6848   -2.7802 H   0  0  0  0  0  0  0  0  0  0  0  0
  6 14  1  0
  5 13  1  0
  1 10  1  0
  1  2  1  0
  2 11  1  0
  6  7  1  0
  7 16  1  0
  5  6  1  0
  6 15  1  0
  4  5  1  0
  5  8  1  0
  3  4  3  0
  2  3  1  0
  2 12  1  0
  8  9  3  0
M  END
$$$$

     RDKit          3D

 23 24  0  0  0  0  0  0  0  0999 V2000
    0.4942   -1.2796   -0.7961 C   0  0  0  0  0  0  0  0  0  0  0  0
   -0.8592   -1.2237   -0.0728 C   0  0  0  0  0  0  0  0  0  0  0  0
   -0.1103   -1.9671    1.1191 C   0  0  0  0  0  0  0  0  0  0  0  0
    1.0560   -1.0439    0.9342 C   0  0  0  0  0  0  0  0  0  0  0  0
    1.1596    0.4967    1.1413 C   0  0  0  0  0  0  0  0  0  0  0  0
    1.6018    1.1395    0.0150 C   0  0  0  0  0  0  0  0  0  0  0  0
    0.6411    1.9145   -0.7907 C   0  0  0  0  0  0  0  0  0  0  0  0
   -1.0241    1.6302   -0.4922 C   0  0  0  0  0  0  0  0  0  0  0  0
   -1.6023    0.2161   -0.1355 C   0  0  0  0  0  0  0  0  0  0  0  0
    0.7409   -2.3598   -1.1186 H   0  0  0  0  0  0  0  0  0  0  0  0
    0.7332   -0.4482   -1.5285 H   0  0  0  0  0  0  0  0  0  0  0  0
   -1.6576   -1.7925   -0.5605 H   0  0  0  0  0  0  0  0  0  0  0  0
   -0.6360   -1.8475    2.1355 H   0  0  0  0  0  0  0  0  0  0  0  0
    0.3218   -2.9807    1.2037 H   0  0  0  0  0  0  0  0  0  0  0  0
    1.9865   -1.6071    1.2662 H   0  0  0  0  0  0  0  0  0  0  0  0
    0.3190    1.0194    1.6535 H   0  0  0  0  0  0  0  0  0  0  0  0
    2.4788    0.7421   -0.5996 H   0  0  0  0  0  0  0  0  0  0  0  0
    0.7605    1.5584   -1.8045 H   0  0  0  0  0  0  0  0  0  0  0  0
    0.9162    2.9996   -0.7030 H   0  0  0  0  0  0  0  0  0  0  0  0
   -1.2035    2.4367    0.2408 H   0  0  0  0  0  0  0  0  0  0  0  0
   -1.5318    1.9379   -1.4255 H   0  0  0  0  0  0  0  0  0  0  0  0
   -2.5326    0.1019   -0.6877 H   0  0  0  0  0  0  0  0  0  0  0  0
   -2.0522    0.3573    1.0060 H   0  0  0  0  0  0  0  0  0  0  0  0
  7 18  1  0
  8 20  1  0
  6 17  1  0
  7 19  1  0
  7  8  1  0
  6  7  1  0
  8 21  1  0
  8  9  1  0
  5  6  2  3
  9 23  1  0
  9 22  1  0
  2  9  1  0
  5 16  1  0
  4  5  1  0
  1 11  1  0
  1  4  1  0
  1  2  1  0
  1 10  1  0
  4 15  1  0
  3  4  1  0
  2  3  1  0
  2 12  1  0
  3 13  1  0
  3 14  1  0
M  END
$$$$

     RDKit          3D

 13 13  0  0  0  0  0  0  0  0999 V2000
   -0.7176    0.7660    1.5773 C   0  0  0  0  0  0  0  0  0  0  0  0
    0.5748    0.8751    0.8058 C   0  0  0  0  0  0  0  0  0  0  0  0
    1.4667    1.6204    1.2138 O   0  0  0  0  0  0  0  0  0  0  0  0
    0.6972    0.0847   -0.3850 C   0  0  0  0  0  0  0  0  0  0  0  0
   -0.0964   -0.8073   -1.0492 C   0  0  0  0  0  0  0  0  0  0  0  0
   -1.3259   -1.1846   -0.6745 O   0  0  0  0  0  0  0  0  0  0  0  0
    0.5471   -1.2620   -2.1547 N   0  0  0  0  0  0  0  0  0  0  0  0
    1.7408   -0.6810   -2.2155 N   0  0  0  0  0  0  0  0  0  0  0  0
    1.8528    0.1688   -1.1106 O   0  0  0  0  0  0  0  0  0  0  0  0
   -0.8530   -0.2561    1.9406 H   0  0  0  0  0  0  0  0  0  0  0  0
   -1.5598    1.0646    0.9483 H   0  0  0  0  0  0  0  0  0  0  0  0
   -0.6837    1.4357    2.4420 H   0  0  0  0  0  0  0  0  0  0  0  0
   -1.6429   -1.8243   -1.3383 H   0  0  0  0  0  0  0  0  0  0  0  0
  7  8  2  0
  8  9  1  0
  5  7  1  0
  4  9  1  0
  4  5  2  0
  5  6  1  0
  2  4  1  0
  6 13  1  0
  1 11  1  0
  1 10  1  0
  1  2  1  0
  2  3  2  0
  1 12  1  0
M  END
$$$$

     RDKit          3D

 19 19  0  0  0  0  0  0  0  0999 V2000
    0.9659   -1.8700   -0.4286 C   0  0  0  0  0  0  0  0  0  0  0  0
    0.0853   -1.8651    0.6617 O   0  0  0  0  0  0  0  0  0  0  0  0
   -0.1658   -0.6003    1.3036 C   0  0  0  0  0  0  0  0  0  0  0  0
   -1.5187   -0.0229    0.9111 C   0  0  0  0  0  0  0  0  0  0  0  0
   -1.2471    0.6565   -0.4396 C   0  0  0  0  0  0  0  0  0  0  0  0
    0.1620    1.1010   -0.2559 C   0  0  0  0  0  0  0  0  0  0  0  0
    0.8500    1.9217   -1.2414 C   0  0  0  0  0  0  0  0  0  0  0  0
    0.9861    1.5331   -2.4048 O   0  0  0  0  0  0  0  0  0  0  0  0
    0.7540    0.5220    0.8106 C   0  0  0  0  0  0  0  0  0  0  0  0
    1.9225   -1.3436   -0.1795 H   0  0  0  0  0  0  0  0  0  0  0  0
    0.5272   -1.3830   -1.3145 H   0  0  0  0  0  0  0  0  0  0  0  0
    1.1880   -2.9028   -0.6968 H   0  0  0  0  0  0  0  0  0  0  0  0
   -0.1265   -0.7779    2.3748 H   0  0  0  0  0  0  0  0  0  0  0  0
   -1.7632    0.7217    1.6724 H   0  0  0  0  0  0  0  0  0  0  0  0
   -2.3251   -0.7489    0.8133 H   0  0  0  0  0  0  0  0  0  0  0  0
   -1.9447    1.4806   -0.5560 H   0  0  0  0  0  0  0  0  0  0  0  0
   -1.3302   -0.0146   -1.2894 H   0  0  0  0  0  0  0  0  0  0  0  0
    1.2183    2.9248   -0.8914 H   0  0  0  0  0  0  0  0  0  0  0  0
    1.7619    0.6677    1.1505 H   0  0  0  0  0  0  0  0  0  0  0  0
  7  8  2  0
  7 18  1  0
  6  7  1  0
  6  9  2  0
  5  6  1  0
  5 16  1  0
  9 19  1  0
  3  9  1  0
  5 17  1  0
  4  5  1  0
  3 13  1  0
  3  4  1  0
  2  3  1  0
  4 14  1  0
  4 15  1  0
  1 11  1  0
  1 10  1  0
  1  2  1  0
  1 12  1  0
M  END
$$$$

     RDKit          3D

 17 19  0  0  0  0  0  0  0  0999 V2000
    0.5162   -0.0333    2.1334 C   0  0  0  0  0  0  0  0  0  0  0  0
    0.0929    0.1298    0.7161 C   0  0  0  0  0  0  0  0  0  0  0  0
   -1.1021   -0.6389    0.2042 C   0  0  0  0  0  0  0  0  0  0  0  0
   -0.3606   -0.7237   -1.1723 C   0  0  0  0  0  0  0  0  0  0  0  0
   -0.4753    0.5513   -1.9144 N   0  0  0  0  0  0  0  0  0  0  0  0
    0.3131    1.5462   -1.3113 C   0  0  0  0  0  0  0  0  0  0  0  0
    0.4558    2.6831   -1.7226 O   0  0  0  0  0  0  0  0  0  0  0  0
    0.9386    0.9256   -0.1864 N   0  0  0  0  0  0  0  0  0  0  0  0
    0.8597   -0.4756   -0.3801 C   0  0  0  0  0  0  0  0  0  0  0  0
   -0.2763    0.3171    2.8055 H   0  0  0  0  0  0  0  0  0  0  0  0
    0.7195   -1.0861    2.3678 H   0  0  0  0  0  0  0  0  0  0  0  0
    1.4214    0.5443    2.3523 H   0  0  0  0  0  0  0  0  0  0  0  0
   -2.0467   -0.0833    0.1971 H   0  0  0  0  0  0  0  0  0  0  0  0
   -1.2652   -1.6079    0.6930 H   0  0  0  0  0  0  0  0  0  0  0  0
   -0.4767   -1.6252   -1.7698 H   0  0  0  0  0  0  0  0  0  0  0  0
   -0.9785    0.7490   -2.7693 H   0  0  0  0  0  0  0  0  0  0  0  0
    1.6643   -1.1724   -0.2433 H   0  0  0  0  0  0  0  0  0  0  0  0
  3 13  1  0
  4 15  1  0
  3 14  1  0
  3  4  1  0
  2  3  1  0
  1 11  1  0
  4  9  1  0
  4  5  1  0
  2  9  1  0
  1  2  1  0
  2  8  1  0
  9 17  1  0
  8  9  1  0
  1 10  1  0
  1 12  1  0
  5 16  1  0
  5  6  1  0
  6  8  1  0
  6  7  2  0
M  END
$$$$

     RDKit          3D

 15 15  0  0  0  0  0  0  0  0999 V2000
   -1.6057    0.3821    2.0561 C   0  0  0  0  0  0  0  0  0  0  0  0
   -0.5733    0.3568    1.0014 C   0  0  0  0  0  0  0  0  0  0  0  0
    0.4933    1.1220    0.8666 N   0  0  0  0  0  0  0  0  0  0  0  0
    1.0672    0.6509   -0.2724 C   0  0  0  0  0  0  0  0  0  0  0  0
    2.1925    1.1411   -0.7959 O   0  0  0  0  0  0  0  0  0  0  0  0
    0.3422   -0.3838   -0.8051 C   0  0  0  0  0  0  0  0  0  0  0  0
    0.4682   -1.2542   -1.9829 C   0  0  0  0  0  0  0  0  0  0  0  0
   -0.7313   -0.5872    0.0207 O   0  0  0  0  0  0  0  0  0  0  0  0
   -1.5699   -0.5377    2.6478 H   0  0  0  0  0  0  0  0  0  0  0  0
   -2.6033    0.4751    1.6160 H   0  0  0  0  0  0  0  0  0  0  0  0
   -1.4492    1.2297    2.7302 H   0  0  0  0  0  0  0  0  0  0  0  0
    2.4685    1.8608   -0.2031 H   0  0  0  0  0  0  0  0  0  0  0  0
   -0.4843   -1.3207   -2.5178 H   0  0  0  0  0  0  0  0  0  0  0  0
    1.2204   -0.8709   -2.6796 H   0  0  0  0  0  0  0  0  0  0  0  0
    0.7648   -2.2636   -1.6821 H   0  0  0  0  0  0  0  0  0  0  0  0
  5 12  1  0
  4  5  1  0
  3  4  1  0
  2  3  2  0
  1 10  1  0
  4  6  2  0
  1  2  1  0
  2  8  1  0
  1  9  1  0
  1 11  1  0
  6  8  1  0
  6  7  1  0
  7 15  1  0
  7 13  1  0
  7 14  1  0
M  END
$$$$

     RDKit          3D

 21 21  0  0  0  0  0  0  0  0999 V2000
    1.1780   -0.2274    2.6526 C   0  0  0  0  0  0  0  0  0  0  0  0
    0.9881   -1.6936    2.2484 C   0  0  0  0  0  0  0  0  0  0  0  0
    0.4615   -1.7159    0.8967 C   0  0  0  0  0  0  0  0  0  0  0  0
   -0.1644   -1.4838   -0.0954 C   0  0  0  0  0  0  0  0  0  0  0  0
   -1.0175   -0.8835   -1.0713 C   0  0  0  0  0  0  0  0  0  0  0  0
   -0.5120   -0.7135   -2.4033 O   0  0  0  0  0  0  0  0  0  0  0  0
   -0.6334    0.4919   -1.5542 C   0  0  0  0  0  0  0  0  0  0  0  0
   -1.7749    1.4402   -1.9062 C   0  0  0  0  0  0  0  0  0  0  0  0
    0.7122    1.0982   -1.3462 C   0  0  0  0  0  0  0  0  0  0  0  0
    2.1527    0.1808    2.3128 H   0  0  0  0  0  0  0  0  0  0  0  0
    0.3708    0.3708    2.1484 H   0  0  0  0  0  0  0  0  0  0  0  0
    1.0818   -0.0846    3.7427 H   0  0  0  0  0  0  0  0  0  0  0  0
    0.2524   -2.1550    2.9481 H   0  0  0  0  0  0  0  0  0  0  0  0
    1.9489   -2.2517    2.3721 H   0  0  0  0  0  0  0  0  0  0  0  0
   -2.0262   -1.2265   -1.0765 H   0  0  0  0  0  0  0  0  0  0  0  0
   -2.4452    1.5526   -1.0379 H   0  0  0  0  0  0  0  0  0  0  0  0
   -2.3404    1.0751   -2.7303 H   0  0  0  0  0  0  0  0  0  0  0  0
   -1.4221    2.4281   -2.1845 H   0  0  0  0  0  0  0  0  0  0  0  0
    1.3825    0.4669   -0.7219 H   0  0  0  0  0  0  0  0  0  0  0  0
    0.6153    2.0876   -0.8729 H   0  0  0  0  0  0  0  0  0  0  0  0
    1.1920    1.2433   -2.3212 H   0  0  0  0  0  0  0  0  0  0  0  0
  5  6  1  0
  6  7  1  0
  2 13  1  0
  1 11  1  0
  8 18  1  0
  8 16  1  0
  2  3  1  0
  1  2  1  0
  2 14  1  0
  1 10  1  0
  3  4  3  0
  1 12  1  0
  4  5  1  0
  5  7  1  0
  5 15  1  0
  7  8  1  0
  8 17  1  0
  7  9  1  0
  9 19  1  0
  9 21  1  0
  9 20  1  0
M  END
$$$$

     RDKit          3D

 18 22  0  0  0  0  0  0  0  0999 V2000
   -1.5273    1.6244   -0.5600 C   0  0  0  0  0  0  0  0  0  0  0  0
   -1.2334    0.5736    0.5083 C   0  0  0  0  0  0  0  0  0  0  0  0
   -0.3316    1.6873    0.3407 N   0  0  0  0  0  0  0  0  0  0  0  0
    0.9390    0.9844   -0.2277 C   0  0  0  0  0  0  0  0  0  0  0  0
    0.5386   -0.2786   -1.0505 C   0  0  0  0  0  0  0  0  0  0  0  0
    1.4401   -1.2530   -0.2225 C   0  0  0  0  0  0  0  0  0  0  0  0
    0.0876   -1.9744    0.2071 C   0  0  0  0  0  0  0  0  0  0  0  0
   -0.3151   -0.5170    0.2653 C   0  0  0  0  0  0  0  0  0  0  0  0
    1.1445   -0.1715    0.8332 C   0  0  0  0  0  0  0  0  0  0  0  0
   -2.6410    1.6999   -0.3415 H   0  0  0  0  0  0  0  0  0  0  0  0
   -1.7093    2.7111   -0.6019 H   0  0  0  0  0  0  0  0  0  0  0  0
   -1.7950    0.5071    1.4241 H   0  0  0  0  0  0  0  0  0  0  0  0
    1.7728    1.6126   -0.5133 H   0  0  0  0  0  0  0  0  0  0  0  0
    0.1707   -0.3585   -2.0581 H   0  0  0  0  0  0  0  0  0  0  0  0
    2.4268   -1.6449   -0.4832 H   0  0  0  0  0  0  0  0  0  0  0  0
    0.0706   -2.5175    1.1560 H   0  0  0  0  0  0  0  0  0  0  0  0
   -0.3882   -2.5592   -0.5756 H   0  0  0  0  0  0  0  0  0  0  0  0
    1.3502   -0.1257    1.8996 H   0  0  0  0  0  0  0  0  0  0  0  0
  6 15  1  0
  7 17  1  0
  6  7  1  0
  5  6  1  0
  6  9  1  0
  5 14  1  0
  7 16  1  0
  7  8  1  0
  5  8  1  0
  4  5  1  0
  8  9  1  0
  4  9  1  0
  9 18  1  0
  4 13  1  0
  2  8  1  0
  3  4  1  0
  1 11  1  0
  2  3  1  0
  1  2  1  0
  2 12  1  0
  1  3  1  0
  1 10  1  0
M  END
$$$$

     RDKit          3D

 15 15  0  0  0  0  0  0  0  0999 V2000
   -0.4830   -1.2619   -2.7129 O   0  0  0  0  0  0  0  0  0  0  0  0
   -0.8772   -0.8565   -1.6213 C   0  0  0  0  0  0  0  0  0  0  0  0
   -0.0149   -0.0363   -0.7033 C   0  0  0  0  0  0  0  0  0  0  0  0
   -0.8602    0.8693    0.1550 C   0  0  0  0  0  0  0  0  0  0  0  0
   -0.1066    1.4926    1.1993 O   0  0  0  0  0  0  0  0  0  0  0  0
    1.0831    1.0218    1.6598 C   0  0  0  0  0  0  0  0  0  0  0  0
    1.7508    1.6517    2.4659 O   0  0  0  0  0  0  0  0  0  0  0  0
    1.4898   -0.1834    1.1810 O   0  0  0  0  0  0  0  0  0  0  0  0
    0.7218   -0.9405    0.2426 C   0  0  0  0  0  0  0  0  0  0  0  0
   -1.8651   -1.1593   -1.2330 H   0  0  0  0  0  0  0  0  0  0  0  0
    0.6937    0.5634   -1.2867 H   0  0  0  0  0  0  0  0  0  0  0  0
   -1.2898    1.6688   -0.4606 H   0  0  0  0  0  0  0  0  0  0  0  0
   -1.7066    0.3483    0.6156 H   0  0  0  0  0  0  0  0  0  0  0  0
    0.0476   -1.5936    0.8088 H   0  0  0  0  0  0  0  0  0  0  0  0
    1.4167   -1.5843   -0.3103 H   0  0  0  0  0  0  0  0  0  0  0  0
  4 12  1  0
  4 13  1  0
  4  5  1  0
  3  4  1  0
  5  6  1  0
  3 11  1  0
  1  2  2  0
  2  3  1  0
  3  9  1  0
  2 10  1  0
  6  7  2  0
  6  8  1  0
  8  9  1  0
  9 14  1  0
  9 15  1  0
M  END
$$$$

     RDKit          3D

 15 15  0  0  0  0  0  0  0  0999 V2000
    2.8581   -0.6510    0.5745 C   0  0  0  0  0  0  0  0  0  0  0  0
    2.1056   -1.1110   -0.2287 C   0  0  0  0  0  0  0  0  0  0  0  0
    1.0279   -1.6317   -1.0774 C   0  0  0  0  0  0  0  0  0  0  0  0
   -0.0895   -0.5843   -1.2783 N   0  0  0  0  0  0  0  0  0  0  0  0
   -0.4719   -0.0492    0.0444 C   0  0  0  0  0  0  0  0  0  0  0  0
   -1.8792    0.6232   -0.0322 C   0  0  0  0  0  0  0  0  0  0  0  0
   -1.1776    1.6667    0.8739 C   0  0  0  0  0  0  0  0  0  0  0  0
    0.1342    1.4114    0.2498 O   0  0  0  0  0  0  0  0  0  0  0  0
    3.3767   -0.1906    1.4363 H   0  0  0  0  0  0  0  0  0  0  0  0
    1.3837   -1.8326   -2.1175 H   0  0  0  0  0  0  0  0  0  0  0  0
    0.5909   -2.5473   -0.6559 H   0  0  0  0  0  0  0  0  0  0  0  0
   -2.2578    0.9561   -1.0099 H   0  0  0  0  0  0  0  0  0  0  0  0
   -2.6758    0.0634    0.4948 H   0  0  0  0  0  0  0  0  0  0  0  0
   -1.6727    2.6155    0.8455 H   0  0  0  0  0  0  0  0  0  0  0  0
   -1.2526    1.2614    1.8807 H   0  0  0  0  0  0  0  0  0  0  0  0
  7 14  1  0
  6 12  1  0
  6  7  1  0
  7 15  1  0
  7  8  1  0
  6 13  1  0
  5  6  1  0
  5  8  1  0
  1  9  1  0
  4  5  1  0
  1  2  3  0
  3  4  1  0
  2  3  1  0
  3 11  1  0
  3 10  1  0
M  END
$$$$

     RDKit          3D

 16 16  0  0  0  0  0  0  0  0999 V2000
   -1.3549    1.1098    1.1154 C   0  0  0  0  0  0  0  0  0  0  0  0
   -0.1846    0.1141    0.7150 C   0  0  0  0  0  0  0  0  0  0  0  0
   -0.2885   -0.5717   -0.4569 C   0  0  0  0  0  0  0  0  0  0  0  0
   -1.4704   -1.2653   -0.8389 N   0  0  0  0  0  0  0  0  0  0  0  0
    0.9330   -0.6380   -1.3633 C   0  0  0  0  0  0  0  0  0  0  0  0
    0.8882   -1.1976   -2.4594 O   0  0  0  0  0  0  0  0  0  0  0  0
    2.0427    0.0304   -0.9803 N   0  0  0  0  0  0  0  0  0  0  0  0
    2.2109    0.5049    0.3744 N   0  0  0  0  0  0  0  0  0  0  0  0
    1.1359    0.6354    1.0806 C   0  0  0  0  0  0  0  0  0  0  0  0
   -1.9788    0.6943    1.9382 H   0  0  0  0  0  0  0  0  0  0  0  0
   -1.9538    1.5030    0.2349 H   0  0  0  0  0  0  0  0  0  0  0  0
   -0.9331    2.0384    1.6109 H   0  0  0  0  0  0  0  0  0  0  0  0
   -1.9273   -1.8210   -0.0729 H   0  0  0  0  0  0  0  0  0  0  0  0
   -1.2269   -1.9604   -1.5109 H   0  0  0  0  0  0  0  0  0  0  0  0
    2.8899   -0.0907   -1.5393 H   0  0  0  0  0  0  0  0  0  0  0  0
    1.2178    0.9144    2.1524 H   0  0  0  0  0  0  0  0  0  0  0  0
  1 11  1  0
  4 13  1  0
  9 16  1  0
  8  9  2  0
  7  8  1  0
  4 14  1  0
  2  9  1  0
  7 15  1  0
  5  7  1  0
  1  2  1  0
  2  3  2  0
  1 10  1  0
  1 12  1  0
  5  6  2  0
  3  5  1  0
  3  4  1  0
M  END
$$$$

     RDKit          3D

 21 23  0  0  0  0  0  0  0  0999 V2000
   -1.2679   -1.2774   -0.2659 C   0  0  0  0  0  0  0  0  0  0  0  0
   -1.4915   -0.3702    0.9307 C   0  0  0  0  0  0  0  0  0  0  0  0
   -0.8687    0.9291    0.4952 C   0  0  0  0  0  0  0  0  0  0  0  0
    0.4485    1.3720    0.6647 C   0  0  0  0  0  0  0  0  0  0  0  0
    1.4801    0.6092    1.3062 C   0  0  0  0  0  0  0  0  0  0  0  0
    2.0645   -0.2443    0.4356 C   0  0  0  0  0  0  0  0  0  0  0  0
    1.5118    0.0136   -0.9149 C   0  0  0  0  0  0  0  0  0  0  0  0
    0.1066    0.7142   -0.7396 C   0  0  0  0  0  0  0  0  0  0  0  0
   -0.8985   -0.3110   -1.4041 C   0  0  0  0  0  0  0  0  0  0  0  0
   -0.4387   -1.9140   -0.0393 H   0  0  0  0  0  0  0  0  0  0  0  0
   -2.1416   -1.9327   -0.5216 H   0  0  0  0  0  0  0  0  0  0  0  0
   -2.5976   -0.2199    1.0176 H   0  0  0  0  0  0  0  0  0  0  0  0
   -1.0069   -0.7597    1.8529 H   0  0  0  0  0  0  0  0  0  0  0  0
   -1.6342    1.7552    0.5029 H   0  0  0  0  0  0  0  0  0  0  0  0
    0.5508    2.4520    0.7238 H   0  0  0  0  0  0  0  0  0  0  0  0
    1.8029    0.7500    2.3291 H   0  0  0  0  0  0  0  0  0  0  0  0
    2.9238   -0.8348    0.6393 H   0  0  0  0  0  0  0  0  0  0  0  0
    2.1794    0.7330   -1.4295 H   0  0  0  0  0  0  0  0  0  0  0  0
    1.4456   -0.8792   -1.5017 H   0  0  0  0  0  0  0  0  0  0  0  0
   -1.7433    0.2538   -1.8354 H   0  0  0  0  0  0  0  0  0  0  0  0
   -0.4253   -0.8388   -2.2459 H   0  0  0  0  0  0  0  0  0  0  0  0
  1 11  1  0
  4 15  1  0
  1 10  1  0
  1  9  1  0
  1  2  1  0
  9 21  1  0
  2 12  1  0
  4  5  1  0
  4  8  1  0
  3  4  1  0
  8  9  1  0
  9 20  1  0
  2  3  1  0
  2 13  1  0
  5 16  1  0
  5  6  2  0
  3  8  1  0
  7  8  1  0
  3 14  1  0
  7 18  1  0
  6  7  1  0
  6 17  1  0
  7 19  1  0
M  END
$$$$

     RDKit          3D

 18 18  0  0  0  0  0  0  0  0999 V2000
    0.3489   -1.1621    2.6169 F   0  0  0  0  0  0  0  0  0  0  0  0
   -0.4875   -0.9090    1.5829 C   0  0  0  0  0  0  0  0  0  0  0  0
   -1.1032    0.2656    1.8349 F   0  0  0  0  0  0  0  0  0  0  0  0
   -1.4311   -1.8789    1.5826 F   0  0  0  0  0  0  0  0  0  0  0  0
    0.2750   -0.8969    0.2681 C   0  0  0  0  0  0  0  0  0  0  0  0
    1.2773    0.2579    0.1921 C   0  0  0  0  0  0  0  0  0  0  0  0
    0.5860    1.3846   -0.5803 C   0  0  0  0  0  0  0  0  0  0  0  0
   -0.7669    0.8395   -1.0311 C   0  0  0  0  0  0  0  0  0  0  0  0
   -0.6273   -0.6717   -0.9441 C   0  0  0  0  0  0  0  0  0  0  0  0
    0.7994   -1.8554    0.1778 H   0  0  0  0  0  0  0  0  0  0  0  0
    2.1684   -0.0625   -0.3629 H   0  0  0  0  0  0  0  0  0  0  0  0
    1.6151    0.5934    1.1773 H   0  0  0  0  0  0  0  0  0  0  0  0
    0.4597    2.2810    0.0371 H   0  0  0  0  0  0  0  0  0  0  0  0
    1.1989    1.6767   -1.4402 H   0  0  0  0  0  0  0  0  0  0  0  0
   -1.5566    1.1856   -0.3568 H   0  0  0  0  0  0  0  0  0  0  0  0
   -1.0264    1.1725   -2.0397 H   0  0  0  0  0  0  0  0  0  0  0  0
   -0.1326   -1.0454   -1.8488 H   0  0  0  0  0  0  0  0  0  0  0  0
   -1.5971   -1.1750   -0.8656 H   0  0  0  0  0  0  0  0  0  0  0  0
  2  4  1  0
  2  3  1  0
  1  2  1  0
  2  5  1  0
  6 12  1  0
  5 10  1  0
  6 11  1  0
  5  6  1  0
  5  9  1  0
  6  7  1  0
  9 17  1  0
  9 18  1  0
  8  9  1  0
  7 14  1  0
  7 13  1  0
  7  8  1  0
  8 16  1  0
  8 15  1  0
M  END
$$$$

     RDKit          3D

 11 10  0  0  0  0  0  0  0  0999 V2000
   -1.1473   -0.6240   -0.9315 C   0  0  0  0  0  0  0  0  0  0  0  0
    0.0853    0.2028   -0.6678 C   0  0  0  0  0  0  0  0  0  0  0  0
    0.6743    0.7645   -1.5891 O   0  0  0  0  0  0  0  0  0  0  0  0
    0.5291    0.2828    0.7961 C   0  0  0  0  0  0  0  0  0  0  0  0
    1.6577    1.1018    1.0244 O   0  0  0  0  0  0  0  0  0  0  0  0
   -1.3329   -0.6778   -2.0077 H   0  0  0  0  0  0  0  0  0  0  0  0
   -0.9966   -1.6374   -0.5524 H   0  0  0  0  0  0  0  0  0  0  0  0
   -2.0089   -0.1629   -0.4435 H   0  0  0  0  0  0  0  0  0  0  0  0
    0.7670   -0.7341    1.1245 H   0  0  0  0  0  0  0  0  0  0  0  0
   -0.3014    0.6713    1.3929 H   0  0  0  0  0  0  0  0  0  0  0  0
    2.0737    0.8130    1.8541 H   0  0  0  0  0  0  0  0  0  0  0  0
  1  2  1  0
  1  6  1  0
  1  7  1  0
  1  8  1  0
  2  3  2  0
  2  4  1  0
  4  5  1  0
  4  9  1  0
  4 10  1  0
  5 11  1  0
M  END
$$$$

     RDKit          3D

 12 12  0  0  0  0  0  0  0  0999 V2000
    0.1963    1.9055    0.7364 O   0  0  0  0  0  0  0  0  0  0  0  0
    0.7420    0.6944    0.1774 C   0  0  0  0  0  0  0  0  0  0  0  0
    1.0374    0.8769   -1.2696 C   0  0  0  0  0  0  0  0  0  0  0  0
    1.2526    1.0031   -2.4048 N   0  0  0  0  0  0  0  0  0  0  0  0
   -0.1815   -0.4574    0.3896 C   0  0  0  0  0  0  0  0  0  0  0  0
   -0.1654   -1.1534    1.5409 N   0  0  0  0  0  0  0  0  0  0  0  0
   -1.1332   -2.1416    1.3750 O   0  0  0  0  0  0  0  0  0  0  0  0
   -1.7280   -2.0571    0.1155 N   0  0  0  0  0  0  0  0  0  0  0  0
   -1.1417   -1.0209   -0.4757 C   0  0  0  0  0  0  0  0  0  0  0  0
    0.8643    2.6077    0.5963 H   0  0  0  0  0  0  0  0  0  0  0  0
    1.6865    0.4972    0.7085 H   0  0  0  0  0  0  0  0  0  0  0  0
   -1.4292   -0.7545   -1.4894 H   0  0  0  0  0  0  0  0  0  0  0  0
  1  2  1  0
  1 10  1  0
  2  3  1  0
  2  5  1  0
  2 11  1  0
  3  4  3  0
  5  6  2  0
  5  9  1  0
  6  7  1  0
  7  8  1  0
  8  9  2  0
  9 12  1  0
M  END
$$$$

     RDKit          3D

 16 17  0  0  0  0  0  0  0  0999 V2000
    2.3547    2.7496    0.5152 O   0  0  0  0  0  0  0  0  0  0  0  0
    1.6143    1.8179    0.1063 C   0  0  0  0  0  0  0  0  0  0  0  0
    1.5608    0.1334   -0.0119 C   0  0  0  0  0  0  0  0  0  0  0  0
    0.0597    0.4718   -0.0381 C   0  0  0  0  0  0  0  0  0  0  0  0
   -0.9258   -0.0739    1.0618 C   0  0  0  0  0  0  0  0  0  0  0  0
   -1.2408   -1.3273    0.1642 C   0  0  0  0  0  0  0  0  0  0  0  0
   -0.6403   -0.4425   -1.0520 C   0  0  0  0  0  0  0  0  0  0  0  0
    0.3098    1.8883   -0.2505 O   0  0  0  0  0  0  0  0  0  0  0  0
    1.9699    0.0108   -1.0197 H   0  0  0  0  0  0  0  0  0  0  0  0
    1.7021   -0.9058    0.3236 H   0  0  0  0  0  0  0  0  0  0  0  0
   -1.7953    0.5001    1.0979 H   0  0  0  0  0  0  0  0  0  0  0  0
   -0.5281   -0.2853    2.0707 H   0  0  0  0  0  0  0  0  0  0  0  0
   -2.3307   -1.5821    0.0544 H   0  0  0  0  0  0  0  0  0  0  0  0
   -0.6998   -2.2500    0.5200 H   0  0  0  0  0  0  0  0  0  0  0  0
   -1.3342    0.1867   -1.6837 H   0  0  0  0  0  0  0  0  0  0  0  0
   -0.0761   -0.8916   -1.8583 H   0  0  0  0  0  0  0  0  0  0  0  0
  1  2  2  0
  3  9  1  0
  5 12  1  0
  2  3  1  0
  2  8  1  0
  3  4  1  0
  3 10  1  0
  5 11  1  0
  4  8  1  0
  4  5  1  0
  5  6  1  0
  4  7  1  0
  6 14  1  0
  6  7  1  0
  6 13  1  0
  7 16  1  0
  7 15  1  0
M  END
$$$$

     RDKit          3D

 17 18  0  0  0  0  0  0  0  0999 V2000
   -0.2964   -2.1903   -2.2647 C   0  0  0  0  0  0  0  0  0  0  0  0
    0.2776   -1.1507   -1.9951 C   0  0  0  0  0  0  0  0  0  0  0  0
    1.0297   -0.0274   -1.3890 C   0  0  0  0  0  0  0  0  0  0  0  0
    1.5009   -0.5936   -0.1176 O   0  0  0  0  0  0  0  0  0  0  0  0
    0.9187    0.1161    1.0146 C   0  0  0  0  0  0  0  0  0  0  0  0
   -0.4938   -0.2926    1.5273 C   0  0  0  0  0  0  0  0  0  0  0  0
   -0.9724    1.2053    1.3472 C   0  0  0  0  0  0  0  0  0  0  0  0
    0.1368    1.2224    0.3675 C   0  0  0  0  0  0  0  0  0  0  0  0
    0.1778    1.1896   -0.9663 C   0  0  0  0  0  0  0  0  0  0  0  0
   -0.7640   -3.1180   -2.5025 H   0  0  0  0  0  0  0  0  0  0  0  0
    1.9004    0.2686   -2.0132 H   0  0  0  0  0  0  0  0  0  0  0  0
    1.5794    0.2126    1.8991 H   0  0  0  0  0  0  0  0  0  0  0  0
   -1.0359   -1.0351    0.9415 H   0  0  0  0  0  0  0  0  0  0  0  0
   -0.5551   -0.6302    2.5620 H   0  0  0  0  0  0  0  0  0  0  0  0
   -0.8404    1.8733    2.1865 H   0  0  0  0  0  0  0  0  0  0  0  0
   -1.9843    1.3130    0.9798 H   0  0  0  0  0  0  0  0  0  0  0  0
   -0.5791    1.6371   -1.5769 H   0  0  0  0  0  0  0  0  0  0  0  0
  3 11  1  0
  9 17  1  0
  3  9  1  0
  2  3  1  0
  3  4  1  0
  8  9  2  0
  1  2  3  0
  1 10  1  0
  5  8  1  0
  7  8  1  0
  4  5  1  0
  5 12  1  0
  5  6  1  0
  7 15  1  0
  7 16  1  0
  6  7  1  0
  6 14  1  0
  6 13  1  0
M  END
$$$$

     RDKit          3D

 20 21  0  0  0  0  0  0  0  0999 V2000
    2.3048   -0.9797    0.2284 C   0  0  0  0  0  0  0  0  0  0  0  0
    1.0105   -0.2912    0.6498 C   0  0  0  0  0  0  0  0  0  0  0  0
    0.8207    1.0562   -0.0892 C   0  0  0  0  0  0  0  0  0  0  0  0
   -0.5229    1.0004   -0.8268 C   0  0  0  0  0  0  0  0  0  0  0  0
   -1.3916    2.1252   -0.4682 N   0  0  0  0  0  0  0  0  0  0  0  0
   -2.6650    1.8941   -1.1370 O   0  0  0  0  0  0  0  0  0  0  0  0
   -1.1090   -0.3442   -0.5525 C   0  0  0  0  0  0  0  0  0  0  0  0
   -1.5718   -0.7709    0.8181 C   0  0  0  0  0  0  0  0  0  0  0  0
   -0.1970   -1.1307    0.3225 C   0  0  0  0  0  0  0  0  0  0  0  0
    3.1705   -0.3275    0.3952 H   0  0  0  0  0  0  0  0  0  0  0  0
    2.4546   -1.8961    0.8120 H   0  0  0  0  0  0  0  0  0  0  0  0
    2.2795   -1.2779   -0.8288 H   0  0  0  0  0  0  0  0  0  0  0  0
    1.0643   -0.0983    1.7318 H   0  0  0  0  0  0  0  0  0  0  0  0
    1.6201    1.2452   -0.8141 H   0  0  0  0  0  0  0  0  0  0  0  0
    0.8574    1.8698    0.6413 H   0  0  0  0  0  0  0  0  0  0  0  0
   -2.5611    2.4543   -1.9348 H   0  0  0  0  0  0  0  0  0  0  0  0
   -1.5596   -0.8107   -1.4186 H   0  0  0  0  0  0  0  0  0  0  0  0
   -1.7055   -0.0035    1.5815 H   0  0  0  0  0  0  0  0  0  0  0  0
   -2.3089   -1.5590    0.8568 H   0  0  0  0  0  0  0  0  0  0  0  0
    0.0100   -2.1556    0.0328 H   0  0  0  0  0  0  0  0  0  0  0  0
  6 16  1  0
  5  6  1  0
  3 14  1  0
  3 15  1  0
  4  5  1  0
  3  4  1  0
  2  3  1  0
  1 11  1  0
  4  7  1  0
  1 10  1  0
  1  2  1  0
  1 12  1  0
  2 13  1  0
  2  9  1  0
  8 19  1  0
  7  8  1  0
  7  9  1  0
  7 17  1  0
  8  9  1  0
  8 18  1  0
  9 20  1  0
M  END
$$$$

     RDKit          3D

 25 25  0  0  0  0  0  0  0  0999 V2000
   -0.9026    2.1283    1.6269 C   0  0  0  0  0  0  0  0  0  0  0  0
   -1.3540    1.4979    0.3076 C   0  0  0  0  0  0  0  0  0  0  0  0
   -0.5387    0.2646   -0.0158 C   0  0  0  0  0  0  0  0  0  0  0  0
    0.5645    0.2558   -0.8020 C   0  0  0  0  0  0  0  0  0  0  0  0
    1.1521    1.4660   -1.4795 C   0  0  0  0  0  0  0  0  0  0  0  0
    1.3664   -1.0052   -1.0307 C   0  0  0  0  0  0  0  0  0  0  0  0
    0.6709   -2.2989   -0.6154 C   0  0  0  0  0  0  0  0  0  0  0  0
   -0.0309   -2.1368    0.7102 C   0  0  0  0  0  0  0  0  0  0  0  0
   -1.0397   -1.0052    0.6584 C   0  0  0  0  0  0  0  0  0  0  0  0
   -0.2657    1.4661    2.2214 H   0  0  0  0  0  0  0  0  0  0  0  0
   -0.3289    3.0409    1.4316 H   0  0  0  0  0  0  0  0  0  0  0  0
   -1.7754    2.3755    2.2492 H   0  0  0  0  0  0  0  0  0  0  0  0
   -2.4164    1.1962    0.3806 H   0  0  0  0  0  0  0  0  0  0  0  0
   -1.3033    2.2559   -0.4768 H   0  0  0  0  0  0  0  0  0  0  0  0
    1.4144    1.2154   -2.5196 H   0  0  0  0  0  0  0  0  0  0  0  0
    0.4930    2.3367   -1.5003 H   0  0  0  0  0  0  0  0  0  0  0  0
    2.0636    1.7511   -0.9483 H   0  0  0  0  0  0  0  0  0  0  0  0
    1.6618   -1.1073   -2.0887 H   0  0  0  0  0  0  0  0  0  0  0  0
    2.2912   -0.8959   -0.4637 H   0  0  0  0  0  0  0  0  0  0  0  0
    1.4220   -3.0919   -0.5501 H   0  0  0  0  0  0  0  0  0  0  0  0
   -0.0555   -2.5799   -1.3909 H   0  0  0  0  0  0  0  0  0  0  0  0
   -0.5237   -3.0748    0.9958 H   0  0  0  0  0  0  0  0  0  0  0  0
    0.7170   -1.9236    1.4882 H   0  0  0  0  0  0  0  0  0  0  0  0
   -1.9393   -1.3576    0.1279 H   0  0  0  0  0  0  0  0  0  0  0  0
   -1.3427   -0.7735    1.6841 H   0  0  0  0  0  0  0  0  0  0  0  0
  5 16  1  0
  5 15  1  0
  5 17  1  0
  4  5  1  0
  6 19  1  0
  6 18  1  0
  4  6  1  0
  6  7  1  0
  3  4  2  0
  1 11  1  0
  2 13  1  0
  2  3  1  0
  3  9  1  0
  7 20  1  0
  7 21  1  0
  7  8  1  0
  1  2  1  0
  2 14  1  0
  1 10  1  0
  1 12  1  0
  8 22  1  0
  8  9  1  0
  8 23  1  0
  9 24  1  0
  9 25  1  0
M  END
$$$$

     RDKit          3D

 14 15  0  0  0  0  0  0  0  0999 V2000
   -0.9917    0.4204    2.4913 O   0  0  0  0  0  0  0  0  0  0  0  0
   -0.7185   -0.0041    1.3761 C   0  0  0  0  0  0  0  0  0  0  0  0
   -1.6004   -0.7234    0.6203 O   0  0  0  0  0  0  0  0  0  0  0  0
   -0.9836   -1.1389   -0.6142 C   0  0  0  0  0  0  0  0  0  0  0  0
    0.3984   -0.5162   -0.7292 C   0  0  0  0  0  0  0  0  0  0  0  0
    0.3940    0.7633   -1.4121 O   0  0  0  0  0  0  0  0  0  0  0  0
    0.8034    1.4301   -0.1917 C   0  0  0  0  0  0  0  0  0  0  0  0
    0.5956    0.1540    0.6146 C   0  0  0  0  0  0  0  0  0  0  0  0
   -0.9165   -2.2315   -0.5919 H   0  0  0  0  0  0  0  0  0  0  0  0
   -1.6339   -0.8518   -1.4465 H   0  0  0  0  0  0  0  0  0  0  0  0
    1.2027   -1.1641   -1.0881 H   0  0  0  0  0  0  0  0  0  0  0  0
    1.8374    1.7815   -0.2576 H   0  0  0  0  0  0  0  0  0  0  0  0
    0.1423    2.2660    0.0534 H   0  0  0  0  0  0  0  0  0  0  0  0
    1.4708   -0.1852    1.1755 H   0  0  0  0  0  0  0  0  0  0  0  0
  8 14  1  0
  4  9  1  0
  5 11  1  0
  2  8  1  0
  5  8  1  0
  7  8  1  0
  1  2  2  0
  2  3  1  0
  4  5  1  0
  5  6  1  0
  3  4  1  0
  4 10  1  0
  7 12  1  0
  6  7  1  0
  7 13  1  0
M  END
$$$$

     RDKit          3D

 21 23  0  0  0  0  0  0  0  0999 V2000
   -0.3167   -2.0066    2.7600 O   0  0  0  0  0  0  0  0  0  0  0  0
    0.5225   -1.2437    1.4415 C   0  0  0  0  0  0  0  0  0  0  0  0
    1.0805    0.1135    1.5550 C   0  0  0  0  0  0  0  0  0  0  0  0
    0.3227    0.3826    0.1710 C   0  0  0  0  0  0  0  0  0  0  0  0
    0.8564   -0.4120   -1.1704 C   0  0  0  0  0  0  0  0  0  0  0  0
   -0.8049   -0.3672   -1.0821 C   0  0  0  0  0  0  0  0  0  0  0  0
   -1.0510    1.1757   -1.4650 C   0  0  0  0  0  0  0  0  0  0  0  0
    0.0265    1.7588   -0.4650 C   0  0  0  0  0  0  0  0  0  0  0  0
   -0.6305   -0.7550    0.4556 C   0  0  0  0  0  0  0  0  0  0  0  0
   -1.1653   -1.5043    2.8888 H   0  0  0  0  0  0  0  0  0  0  0  0
    1.3470   -1.9166    1.2367 H   0  0  0  0  0  0  0  0  0  0  0  0
    2.1152    0.5131    1.3366 H   0  0  0  0  0  0  0  0  0  0  0  0
    0.5139    0.6767    2.3376 H   0  0  0  0  0  0  0  0  0  0  0  0
    1.2059    0.2601   -1.9925 H   0  0  0  0  0  0  0  0  0  0  0  0
    0.5827   -1.2278   -2.0042 H   0  0  0  0  0  0  0  0  0  0  0  0
   -1.4082   -1.1150   -1.5706 H   0  0  0  0  0  0  0  0  0  0  0  0
   -2.1422    1.3203   -1.3087 H   0  0  0  0  0  0  0  0  0  0  0  0
   -0.7841    1.4810   -2.4672 H   0  0  0  0  0  0  0  0  0  0  0  0
   -0.4123    2.6651   -0.1285 H   0  0  0  0  0  0  0  0  0  0  0  0
    1.0298    2.0994   -0.8361 H   0  0  0  0  0  0  0  0  0  0  0  0
   -0.8880   -1.8979    0.3074 H   0  0  0  0  0  0  0  0  0  0  0  0
  2 11  1  0
  6 16  1  0
  9 21  1  0
  1  2  1  0
  1 10  1  0
  2  9  1  0
  2  3  1  0
  6  9  1  0
  4  9  1  0
  6  7  1  0
  5  6  1  0
  7 17  1  0
  7 18  1  0
  7  8  1  0
  5 14  1  0
  3 12  1  0
  4  5  1  0
  5 15  1  0
  3  4  1  0
  3 13  1  0
  4  8  1  0
  8 20  1  0
  8 19  1  0
M  END
$$$$

     RDKit          3D

 19 19  0  0  0  0  0  0  0  0999 V2000
    1.2851    1.9019   -0.8962 C   0  0  0  0  0  0  0  0  0  0  0  0
    1.5853    0.8116   -0.0338 O   0  0  0  0  0  0  0  0  0  0  0  0
    0.6271    0.5663    0.9960 C   0  0  0  0  0  0  0  0  0  0  0  0
   -0.2837   -0.6289    0.6437 C   0  0  0  0  0  0  0  0  0  0  0  0
   -1.1576   -0.4743   -0.6264 C   0  0  0  0  0  0  0  0  0  0  0  0
   -0.1641   -1.4323   -1.2857 C   0  0  0  0  0  0  0  0  0  0  0  0
    0.4685   -1.7053   -0.0176 O   0  0  0  0  0  0  0  0  0  0  0  0
   -1.0641   -1.1321    1.9383 C   0  0  0  0  0  0  0  0  0  0  0  0
   -0.7691   -2.0237    2.7446 O   0  0  0  0  0  0  0  0  0  0  0  0
    1.9719    2.7411   -0.7008 H   0  0  0  0  0  0  0  0  0  0  0  0
    0.2513    2.2734   -0.7867 H   0  0  0  0  0  0  0  0  0  0  0  0
    1.4490    1.5563   -1.9297 H   0  0  0  0  0  0  0  0  0  0  0  0
    1.2029    0.3282    1.9009 H   0  0  0  0  0  0  0  0  0  0  0  0
    0.0430    1.4712    1.2461 H   0  0  0  0  0  0  0  0  0  0  0  0
   -2.1744   -0.8770   -0.5304 H   0  0  0  0  0  0  0  0  0  0  0  0
   -1.2271    0.5201   -1.0706 H   0  0  0  0  0  0  0  0  0  0  0  0
   -0.5901   -2.3273   -1.7224 H   0  0  0  0  0  0  0  0  0  0  0  0
    0.5538   -0.9902   -1.9895 H   0  0  0  0  0  0  0  0  0  0  0  0
   -2.0076   -0.5790    2.1203 H   0  0  0  0  0  0  0  0  0  0  0  0
  6 18  1  0
  6 17  1  0
  6  7  1  0
  4  7  1  0
  5  6  1  0
  1 11  1  0
  3 14  1  0
  1 10  1  0
  1  2  1  0
  2  3  1  0
  4  5  1  0
  3  4  1  0
  4  8  1  0
  1 12  1  0
  5 16  1  0
  5 15  1  0
  3 13  1  0
  8 19  1  0
  8  9  2  0
M  END
$$$$

     RDKit          3D

 17 16  0  0  0  0  0  0  0  0999 V2000
   -1.4941   -1.9564    0.6609 C   0  0  0  0  0  0  0  0  0  0  0  0
   -0.3834   -1.6856   -0.2385 N   0  0  0  0  0  0  0  0  0  0  0  0
    0.7846   -1.3261    0.5479 C   0  0  0  0  0  0  0  0  0  0  0  0
    1.6291   -0.4340   -0.1688 O   0  0  0  0  0  0  0  0  0  0  0  0
    1.4581    0.8830    0.3200 C   0  0  0  0  0  0  0  0  0  0  0  0
    0.0947    1.4958    0.0196 C   0  0  0  0  0  0  0  0  0  0  0  0
   -0.2399    1.7333   -1.4285 C   0  0  0  0  0  0  0  0  0  0  0  0
   -0.6871    1.7959    0.9243 O   0  0  0  0  0  0  0  0  0  0  0  0
   -1.2695   -2.7926    1.3314 H   0  0  0  0  0  0  0  0  0  0  0  0
   -1.7506   -1.0739    1.2566 H   0  0  0  0  0  0  0  0  0  0  0  0
   -2.3761   -2.2283    0.0734 H   0  0  0  0  0  0  0  0  0  0  0  0
    1.3619   -2.2248    0.7866 H   0  0  0  0  0  0  0  0  0  0  0  0
    1.6364    0.9084    1.4018 H   0  0  0  0  0  0  0  0  0  0  0  0
    2.2182    1.5212   -0.1429 H   0  0  0  0  0  0  0  0  0  0  0  0
    0.4550    2.4650   -1.8481 H   0  0  0  0  0  0  0  0  0  0  0  0
   -1.2584    2.1233   -1.5102 H   0  0  0  0  0  0  0  0  0  0  0  0
   -0.1789    0.7956   -1.9855 H   0  0  0  0  0  0  0  0  0  0  0  0
  7 15  1  0
  5 13  1  0
  5 14  1  0
  7 16  1  0
  7 17  1  0
  6  7  1  0
  5  6  1  0
  4  5  1  0
  6  8  2  0
  3 12  1  0
  3  4  1  0
  2  3  1  0
  1 10  1  0
  1  2  1  0
  1  9  1  0
  1 11  1  0
M  END
$$$$
